REMARK  14 active torsions:
REMARK  status: ('A' for Active; 'I' for Inactive)
REMARK    1  A    between atoms: C_2  and  C_3 
REMARK    2  A    between atoms: C_4  and  O_30 
REMARK    3  A    between atoms: C_7  and  C_26 
REMARK    4  A    between atoms: C_8  and  C_9 
REMARK    5  A    between atoms: C_9  and  C_10 
REMARK    6  A    between atoms: CA_14  and  C_16 
REMARK    7  A    between atoms: C_16  and  O_17 
REMARK    8  A    between atoms: C_26  and  O_27 
REMARK    9  A    between atoms: O_30  and  C_31 
REMARK   10  A    between atoms: C_33  and  C_38 
REMARK   11  A    between atoms: C_34  and  O_37 
REMARK   12  A    between atoms: C_35  and  O_36 
REMARK   13  A    between atoms: C_38  and  O_39 
REMARK   14  A    between atoms: C_40  and  O_41 
ROOT
ATOM      1  C   LIG d   1       1.073  -0.248   1.794  0.00  0.00     0.072 C 
ATOM      2  C   LIG d   1       2.283  -0.811   0.977  0.00  0.00     0.276 C 
ATOM      3  O   LIG d   1       2.136  -2.215   0.738  0.00  0.00    -0.331 OA
ATOM      4  C   LIG d   1       0.889  -2.670   0.460  0.00  0.00     0.151 C 
ATOM      5  C   LIG d   1      -0.287  -1.970   0.586  0.00  0.00     0.044 C 
ATOM      6  C   LIG d   1      -0.307  -0.534   1.107  0.00  0.00     0.041 C 
ENDROOT
BRANCH   6   7
ATOM      7  C   LIG d   1      -0.802   0.564   0.105  0.00  0.00     0.052 C 
BRANCH   7   8
ATOM      8  C   LIG d   1      -2.245   0.480  -0.494  0.00  0.00     0.272 C 
ATOM      9  C   LIG d   1      -3.376   0.636   0.490  0.00  0.00     0.050 C 
ATOM     10  C   LIG d   1      -4.596   1.249   0.243  0.00  0.00    -0.018 C 
ATOM     11  N   LIG d   1      -3.430   0.192   1.782  0.00  0.00    -0.357 N 
ATOM     12  C   LIG d   1      -4.928   1.844  -1.079  0.00  0.00     0.088 C 
ATOM     13  C   LIG d   1      -5.327   1.303   1.462  0.00  0.00    -0.001 A 
ATOM     14  CA  LIG d   1      -3.750   1.695  -2.075  0.00  0.00     0.322 C 
ATOM     15  N   LIG d   1      -2.390   1.613  -1.450  0.00  0.00     0.109 N 
ATOM     16  H   LIG d   1      -1.673   1.579  -2.172  0.00  0.00     0.318 HD
ATOM     17  C   LIG d   1      -6.555   1.863   1.859  0.00  0.00     0.014 A 
ATOM     18  C   LIG d   1      -4.539   0.683   2.425  0.00  0.00     0.043 A 
ATOM     19  C   LIG d   1      -6.911   1.831   3.214  0.00  0.00     0.001 A 
ATOM     20  C   LIG d   1      -6.082   1.225   4.159  0.00  0.00     0.002 A 
ATOM     21  C   LIG d   1      -4.886   0.616   3.777  0.00  0.00     0.030 A 
ATOM     22  H   LIG d   1      -2.768  -0.409   2.244  0.00  0.00     0.166 HD
BRANCH  14  23
ATOM     23  C   LIG d   1      -3.816   2.893  -3.028  0.00  0.00     0.174 C 
ATOM     24  OXT LIG d   1      -3.237   3.964  -2.935  0.00  0.00    -0.648 OA
BRANCH  23  25
ATOM     25  O   LIG d   1      -4.635   2.674  -4.082  0.00  0.00    -0.775 OA
ATOM     26  H   LIG d   1      -4.546   3.499  -4.607  0.00  0.00     0.167 HD
ENDBRANCH  23  25
ENDBRANCH  14  23
ENDBRANCH   7   8
ENDBRANCH   6   7
BRANCH   5  27
ATOM     27  C   LIG d   1      -1.530  -2.768   0.533  0.00  0.00     0.291 C 
ATOM     28  O   LIG d   1      -2.559  -2.422   1.098  0.00  0.00    -0.260 OA
BRANCH  27  29
ATOM     29  O   LIG d   1      -1.315  -3.956  -0.092  0.00  0.00    -0.323 OA
ATOM     30  C   LIG d   1      -2.375  -4.928  -0.111  0.00  0.00     0.213 C 
ENDBRANCH  27  29
ENDBRANCH   5  27
BRANCH   1  31
ATOM     31  C   LIG d   1       1.361   1.085   2.470  0.00  0.00    -0.027 C 
ATOM     32  C   LIG d   1       0.517   2.059   2.839  0.00  0.00     0.007 C 
ENDBRANCH   1  31
BRANCH   2  33
ATOM     33  O   LIG d   1       2.553  -0.134  -0.250  0.00  0.00    -0.328 OA
BRANCH  33  34
ATOM     34  C   LIG d   1       3.723  -0.679  -0.906  0.00  0.00     0.294 C 
ATOM     35  O   LIG d   1       4.881  -0.555  -0.067  0.00  0.00    -0.348 OA
ATOM     36  C   LIG d   1       6.095  -0.960  -0.730  0.00  0.00     0.179 C 
ATOM     37  C   LIG d   1       6.379   0.056  -1.835  0.00  0.00     0.180 C 
ATOM     38  C   LIG d   1       5.275  -0.085  -2.878  0.00  0.00     0.183 C 
ATOM     39  C   LIG d   1       3.877   0.053  -2.266  0.00  0.00     0.204 C 
BRANCH  36  40
ATOM     40  C   LIG d   1       7.233  -1.057   0.294  0.00  0.00     0.198 C 
BRANCH  40  41
ATOM     41  O   LIG d   1       7.442   0.184   0.961  0.00  0.00    -0.398 OA
ATOM     42  H   LIG d   1       6.562   0.492   1.240  0.00  0.00     0.209 HD
ENDBRANCH  40  41
ENDBRANCH  36  40
BRANCH  37  43
ATOM     43  O   LIG d   1       7.633  -0.180  -2.475  0.00  0.00    -0.390 OA
ATOM     44  H   LIG d   1       7.660   0.464  -3.212  0.00  0.00     0.210 HD
ENDBRANCH  37  43
BRANCH  38  45
ATOM     45  O   LIG d   1       5.478   0.907  -3.898  0.00  0.00    -0.390 OA
ATOM     46  H   LIG d   1       4.658   0.921  -4.430  0.00  0.00     0.210 HD
ENDBRANCH  38  45
BRANCH  39  47
ATOM     47  O   LIG d   1       2.928  -0.425  -3.247  0.00  0.00    -0.388 OA
ATOM     48  H   LIG d   1       2.874  -1.396  -3.180  0.00  0.00     0.210 HD
ENDBRANCH  39  47
ENDBRANCH  33  34
ENDBRANCH   2  33
TORSDOF 14
