REMARK  5 active torsions:
REMARK  status: ('A' for Active; 'I' for Inactive)
REMARK    1  A    between atoms: C_8  and  C_9 
REMARK    2  A    between atoms: C_9  and  O_10 
REMARK    3  A    between atoms: C_21  and  C_22 
REMARK    4  A    between atoms: C_22  and  C_23 
REMARK    5  A    between atoms: C_23  and  O_24 
ROOT
ATOM      1  C   LIG d   1      -2.090   0.195   0.276  0.00  0.00     0.135 C 
ATOM      2  C   LIG d   1      -1.729   0.014  -1.173  0.00  0.00     0.040 A 
ATOM      3  C   LIG d   1      -1.566  -1.215  -1.788  0.00  0.00    -0.019 A 
ATOM      4  C   LIG d   1      -1.794  -2.503  -1.054  0.00  0.00     0.061 C 
ATOM      5  C   LIG d   1      -2.415  -2.248   0.348  0.00  0.00     0.128 C 
ATOM      6  N   LIG d   1      -1.771  -1.070   1.010  0.00  0.00    -0.379 N 
ATOM      7  C   LIG d   1      -0.455  -1.235   1.451  0.00  0.00     0.100 C 
ATOM      8  C   LIG d   1       0.488  -0.275   1.462  0.00  0.00     0.041 C 
ATOM      9  C   LIG d   1      -1.023  -0.976  -3.078  0.00  0.00    -0.001 A 
ATOM     10  C   LIG d   1      -0.542  -1.804  -4.110  0.00  0.00     0.014 A 
ATOM     11  C   LIG d   1       0.001  -1.219  -5.259  0.00  0.00     0.001 A 
ATOM     12  C   LIG d   1       0.056   0.166  -5.394  0.00  0.00     0.002 A 
ATOM     13  C   LIG d   1      -0.425   1.010  -4.388  0.00  0.00     0.030 A 
ATOM     14  C   LIG d   1      -0.951   0.411  -3.237  0.00  0.00     0.043 A 
ATOM     15  N   LIG d   1      -1.442   0.990  -2.085  0.00  0.00    -0.357 N 
ATOM     16  C   LIG d   1      -1.388   1.367   0.974  0.00  0.00     0.045 C 
ATOM     17  C   LIG d   1       0.141   1.161   1.121  0.00  0.00     0.059 C 
ATOM     18  H   LIG d   1      -1.481   1.986  -1.924  0.00  0.00     0.166 HD
ENDROOT
BRANCH  17  19
ATOM     19  C   LIG d   1       0.693   2.239   2.071  0.00  0.00    -0.052 C 
ATOM     20  C   LIG d   1       0.837   2.149   3.413  0.00  0.00    -0.025 C 
ATOM     21  C   LIG d   1       0.510   1.023   4.340  0.00  0.00     0.036 C 
BRANCH  19  22
ATOM     22  C   LIG d   1       1.105   3.529   1.387  0.00  0.00     0.198 C 
BRANCH  22  23
ATOM     23  O   LIG d   1       2.117   3.279   0.427  0.00  0.00    -0.397 OA
ATOM     24  H   LIG d   1       2.853   2.856   0.907  0.00  0.00     0.209 HD
ENDBRANCH  22  23
ENDBRANCH  19  22
ENDBRANCH  17  19
BRANCH   8  25
ATOM     25  C   LIG d   1       1.912  -0.654   1.678  0.00  0.00     0.291 C 
ATOM     26  O   LIG d   1       2.821   0.139   1.911  0.00  0.00    -0.260 OA
BRANCH  25  27
ATOM     27  O   LIG d   1       2.064  -1.988   1.496  0.00  0.00    -0.323 OA
ATOM     28  C   LIG d   1       3.387  -2.521   1.527  0.00  0.00     0.213 C 
ENDBRANCH  25  27
ENDBRANCH   8  25
TORSDOF 5
