MODEL 1
REMARK VINA RESULT:      -5.6      0.000      0.000
REMARK  1 active torsions:
REMARK  status: ('A' for Active; 'I' for Inactive)
REMARK    1  A    between atoms: C_8  and  O_9 
ROOT
ATOM      1  O   LIG d   1      98.525  47.694  74.797  0.00  0.00    -0.260 OA
ATOM      2  C   LIG d   1      97.705  47.819  75.699  0.00  0.00     0.288 A 
ATOM      3  C   LIG d   1      96.288  47.493  75.479  0.00  0.00     0.083 A 
ATOM      4  C   LIG d   1      95.364  47.629  76.435  0.00  0.00     0.023 A 
ATOM      5  O   LIG d   1      98.051  48.270  76.966  0.00  0.00    -0.275 OA
ATOM      6  C   LIG d   1      97.088  48.414  77.992  0.00  0.00     0.095 A 
ATOM      7  C   LIG d   1      95.743  48.113  77.759  0.00  0.00     0.032 A 
ATOM      8  C   LIG d   1      94.811  48.289  78.802  0.00  0.00     0.094 A 
ATOM      9  C   LIG d   1      97.570  48.865  79.223  0.00  0.00     0.076 A 
ATOM     10  C   LIG d   1      96.620  48.984  80.231  0.00  0.00     0.090 A 
ATOM     11  C   LIG d   1      95.265  48.705  80.073  0.00  0.00     0.034 A 
ATOM     12  C   LIG d   1      94.680  48.929  81.350  0.00  0.00     0.041 A 
ATOM     13  C   LIG d   1      95.696  49.340  82.181  0.00  0.00     0.143 A 
ATOM     14  O   LIG d   1      96.875  49.379  81.509  0.00  0.00    -0.322 OA
ENDROOT
BRANCH   8  15
ATOM     15  O   LIG d   1      93.486  47.968  78.584  0.00  0.00    -0.354 OA
ATOM     16  C   LIG d   1      92.726  49.151  78.333  0.00  0.00     0.210 C 
ENDBRANCH   8  15
TORSDOF 1
ENDMDL
MODEL 2
REMARK VINA RESULT:      -5.6     33.252     34.296
REMARK  1 active torsions:
REMARK  status: ('A' for Active; 'I' for Inactive)
REMARK    1  A    between atoms: C_8  and  O_9 
ROOT
ATOM      1  O   LIG d   1     120.770  21.768  88.466  0.00  0.00    -0.260 OA
ATOM      2  C   LIG d   1     119.775  22.214  87.906  0.00  0.00     0.288 A 
ATOM      3  C   LIG d   1     119.171  23.483  88.340  0.00  0.00     0.083 A 
ATOM      4  C   LIG d   1     118.080  23.993  87.761  0.00  0.00     0.023 A 
ATOM      5  O   LIG d   1     119.162  21.564  86.844  0.00  0.00    -0.275 OA
ATOM      6  C   LIG d   1     118.010  22.092  86.214  0.00  0.00     0.095 A 
ATOM      7  C   LIG d   1     117.442  23.292  86.651  0.00  0.00     0.032 A 
ATOM      8  C   LIG d   1     116.282  23.774  86.011  0.00  0.00     0.094 A 
ATOM      9  C   LIG d   1     117.499  21.345  85.150  0.00  0.00     0.076 A 
ATOM     10  C   LIG d   1     116.379  21.882  84.525  0.00  0.00     0.090 A 
ATOM     11  C   LIG d   1     115.758  23.068  84.905  0.00  0.00     0.034 A 
ATOM     12  C   LIG d   1     114.689  23.249  83.984  0.00  0.00     0.041 A 
ATOM     13  C   LIG d   1     114.718  22.170  83.132  0.00  0.00     0.143 A 
ATOM     14  O   LIG d   1     115.738  21.335  83.455  0.00  0.00    -0.322 OA
ENDROOT
BRANCH   8  15
ATOM     15  O   LIG d   1     115.734  24.972  86.422  0.00  0.00    -0.354 OA
ATOM     16  C   LIG d   1     116.218  26.042  85.608  0.00  0.00     0.210 C 
ENDBRANCH   8  15
TORSDOF 1
ENDMDL
MODEL 3
REMARK VINA RESULT:      -5.0     30.436     32.330
REMARK  1 active torsions:
REMARK  status: ('A' for Active; 'I' for Inactive)
REMARK    1  A    between atoms: C_8  and  O_9 
ROOT
ATOM      1  O   LIG d   1     112.172  20.438  75.420  0.00  0.00    -0.260 OA
ATOM      2  C   LIG d   1     113.013  21.058  74.780  0.00  0.00     0.288 A 
ATOM      3  C   LIG d   1     113.759  20.410  73.690  0.00  0.00     0.083 A 
ATOM      4  C   LIG d   1     114.691  21.051  72.979  0.00  0.00     0.023 A 
ATOM      5  O   LIG d   1     113.314  22.388  75.035  0.00  0.00    -0.275 OA
ATOM      6  C   LIG d   1     114.293  23.085  74.288  0.00  0.00     0.095 A 
ATOM      7  C   LIG d   1     115.002  22.448  73.266  0.00  0.00     0.032 A 
ATOM      8  C   LIG d   1     115.984  23.171  72.559  0.00  0.00     0.094 A 
ATOM      9  C   LIG d   1     114.491  24.423  74.638  0.00  0.00     0.076 A 
ATOM     10  C   LIG d   1     115.440  25.105  73.886  0.00  0.00     0.090 A 
ATOM     11  C   LIG d   1     116.186  24.538  72.856  0.00  0.00     0.034 A 
ATOM     12  C   LIG d   1     116.997  25.590  72.350  0.00  0.00     0.041 A 
ATOM     13  C   LIG d   1     116.711  26.704  73.105  0.00  0.00     0.143 A 
ATOM     14  O   LIG d   1     115.770  26.418  74.040  0.00  0.00    -0.322 OA
ENDROOT
BRANCH   8  15
ATOM     15  O   LIG d   1     116.668  22.553  71.531  0.00  0.00    -0.354 OA
ATOM     16  C   LIG d   1     117.953  22.123  71.982  0.00  0.00     0.210 C 
ENDBRANCH   8  15
TORSDOF 1
ENDMDL
MODEL 4
REMARK VINA RESULT:      -5.0     18.534     21.045
REMARK  1 active torsions:
REMARK  status: ('A' for Active; 'I' for Inactive)
REMARK    1  A    between atoms: C_8  and  O_9 
ROOT
ATOM      1  O   LIG d   1     110.757  45.478  95.334  0.00  0.00    -0.260 OA
ATOM      2  C   LIG d   1     109.673  44.909  95.282  0.00  0.00     0.288 A 
ATOM      3  C   LIG d   1     109.225  44.254  94.043  0.00  0.00     0.083 A 
ATOM      4  C   LIG d   1     108.044  43.635  93.947  0.00  0.00     0.023 A 
ATOM      5  O   LIG d   1     108.811  44.845  96.367  0.00  0.00    -0.275 OA
ATOM      6  C   LIG d   1     107.560  44.189  96.286  0.00  0.00     0.095 A 
ATOM      7  C   LIG d   1     107.145  43.586  95.096  0.00  0.00     0.032 A 
ATOM      8  C   LIG d   1     105.883  42.960  95.048  0.00  0.00     0.094 A 
ATOM      9  C   LIG d   1     106.793  44.187  97.453  0.00  0.00     0.076 A 
ATOM     10  C   LIG d   1     105.575  43.522  97.369  0.00  0.00     0.090 A 
ATOM     11  C   LIG d   1     105.095  42.902  96.220  0.00  0.00     0.034 A 
ATOM     12  C   LIG d   1     103.847  42.330  96.590  0.00  0.00     0.041 A 
ATOM     13  C   LIG d   1     103.644  42.651  97.912  0.00  0.00     0.143 A 
ATOM     14  O   LIG d   1     104.687  43.377  98.391  0.00  0.00    -0.322 OA
ENDROOT
BRANCH   8  15
ATOM     15  O   LIG d   1     105.480  42.340  93.882  0.00  0.00    -0.354 OA
ATOM     16  C   LIG d   1     104.573  43.178  93.165  0.00  0.00     0.210 C 
ENDBRANCH   8  15
TORSDOF 1
ENDMDL
MODEL 5
REMARK VINA RESULT:      -5.0     13.409     16.289
REMARK  1 active torsions:
REMARK  status: ('A' for Active; 'I' for Inactive)
REMARK    1  A    between atoms: C_8  and  O_9 
ROOT
ATOM      1  O   LIG d   1      94.610  49.148  91.134  0.00  0.00    -0.260 OA
ATOM      2  C   LIG d   1      93.693  48.658  91.784  0.00  0.00     0.288 A 
ATOM      3  C   LIG d   1      92.337  48.561  91.221  0.00  0.00     0.083 A 
ATOM      4  C   LIG d   1      91.312  48.045  91.905  0.00  0.00     0.023 A 
ATOM      5  O   LIG d   1      93.868  48.173  93.073  0.00  0.00    -0.275 OA
ATOM      6  C   LIG d   1      92.796  47.617  93.809  0.00  0.00     0.095 A 
ATOM      7  C   LIG d   1      91.511  47.547  93.262  0.00  0.00     0.032 A 
ATOM      8  C   LIG d   1      90.465  47.005  94.036  0.00  0.00     0.094 A 
ATOM      9  C   LIG d   1      93.109  47.154  95.090  0.00  0.00     0.076 A 
ATOM     10  C   LIG d   1      92.053  46.591  95.798  0.00  0.00     0.090 A 
ATOM     11  C   LIG d   1      90.749  46.489  95.320  0.00  0.00     0.034 A 
ATOM     12  C   LIG d   1      90.019  45.829  96.346  0.00  0.00     0.041 A 
ATOM     13  C   LIG d   1      90.907  45.595  97.371  0.00  0.00     0.143 A 
ATOM     14  O   LIG d   1      92.141  46.056  97.048  0.00  0.00    -0.322 OA
ENDROOT
BRANCH   8  15
ATOM     15  O   LIG d   1      89.201  46.910  93.489  0.00  0.00    -0.354 OA
ATOM     16  C   LIG d   1      88.362  47.947  94.002  0.00  0.00     0.210 C 
ENDBRANCH   8  15
TORSDOF 1
ENDMDL
MODEL 6
REMARK VINA RESULT:      -5.0     19.122     22.338
REMARK  1 active torsions:
REMARK  status: ('A' for Active; 'I' for Inactive)
REMARK    1  A    between atoms: C_8  and  O_9 
ROOT
ATOM      1  O   LIG d   1     102.068  33.138  58.518  0.00  0.00    -0.260 OA
ATOM      2  C   LIG d   1     102.597  33.824  59.385  0.00  0.00     0.288 A 
ATOM      3  C   LIG d   1     104.014  33.636  59.734  0.00  0.00     0.083 A 
ATOM      4  C   LIG d   1     104.620  34.357  60.682  0.00  0.00     0.023 A 
ATOM      5  O   LIG d   1     101.909  34.805  60.085  0.00  0.00    -0.275 OA
ATOM      6  C   LIG d   1     102.536  35.582  61.087  0.00  0.00     0.095 A 
ATOM      7  C   LIG d   1     103.879  35.379  61.415  0.00  0.00     0.032 A 
ATOM      8  C   LIG d   1     104.462  36.159  62.433  0.00  0.00     0.094 A 
ATOM      9  C   LIG d   1     101.734  36.544  61.706  0.00  0.00     0.076 A 
ATOM     10  C   LIG d   1     102.364  37.316  62.676  0.00  0.00     0.090 A 
ATOM     11  C   LIG d   1     103.695  37.170  63.056  0.00  0.00     0.034 A 
ATOM     12  C   LIG d   1     103.922  38.173  64.038  0.00  0.00     0.041 A 
ATOM     13  C   LIG d   1     102.729  38.838  64.202  0.00  0.00     0.143 A 
ATOM     14  O   LIG d   1     101.779  38.323  63.381  0.00  0.00    -0.322 OA
ENDROOT
BRANCH   8  15
ATOM     15  O   LIG d   1     105.796  35.980  62.742  0.00  0.00    -0.354 OA
ATOM     16  C   LIG d   1     105.930  35.092  63.852  0.00  0.00     0.210 C 
ENDBRANCH   8  15
TORSDOF 1
ENDMDL
MODEL 7
REMARK VINA RESULT:      -4.9     51.444     53.107
REMARK  1 active torsions:
REMARK  status: ('A' for Active; 'I' for Inactive)
REMARK    1  A    between atoms: C_8  and  O_9 
ROOT
ATOM      1  O   LIG d   1     113.330   8.647 114.135  0.00  0.00    -0.260 OA
ATOM      2  C   LIG d   1     113.448   9.855 113.973  0.00  0.00     0.288 A 
ATOM      3  C   LIG d   1     112.352  10.774 114.319  0.00  0.00     0.083 A 
ATOM      4  C   LIG d   1     112.443  12.095 114.144  0.00  0.00     0.023 A 
ATOM      5  O   LIG d   1     114.603  10.430 113.460  0.00  0.00    -0.275 OA
ATOM      6  C   LIG d   1     114.719  11.827 113.275  0.00  0.00     0.095 A 
ATOM      7  C   LIG d   1     113.661  12.682 113.595  0.00  0.00     0.032 A 
ATOM      8  C   LIG d   1     113.808  14.067 113.376  0.00  0.00     0.094 A 
ATOM      9  C   LIG d   1     115.938  12.277 112.762  0.00  0.00     0.076 A 
ATOM     10  C   LIG d   1     116.050  13.654 112.602  0.00  0.00     0.090 A 
ATOM     11  C   LIG d   1     115.040  14.565 112.897  0.00  0.00     0.034 A 
ATOM     12  C   LIG d   1     115.591  15.846 112.618  0.00  0.00     0.041 A 
ATOM     13  C   LIG d   1     116.870  15.632 112.160  0.00  0.00     0.143 A 
ATOM     14  O   LIG d   1     117.156  14.305 112.145  0.00  0.00    -0.322 OA
ENDROOT
BRANCH   8  15
ATOM     15  O   LIG d   1     112.775  14.917 113.717  0.00  0.00    -0.354 OA
ATOM     16  C   LIG d   1     112.059  15.317 112.547  0.00  0.00     0.210 C 
ENDBRANCH   8  15
TORSDOF 1
ENDMDL
MODEL 8
REMARK VINA RESULT:      -4.9     30.798     32.718
REMARK  1 active torsions:
REMARK  status: ('A' for Active; 'I' for Inactive)
REMARK    1  A    between atoms: C_8  and  O_9 
ROOT
ATOM      1  O   LIG d   1     116.144  18.434  75.766  0.00  0.00    -0.260 OA
ATOM      2  C   LIG d   1     115.834  19.601  75.553  0.00  0.00     0.288 A 
ATOM      3  C   LIG d   1     114.488  20.095  75.884  0.00  0.00     0.083 A 
ATOM      4  C   LIG d   1     114.112  21.357  75.655  0.00  0.00     0.023 A 
ATOM      5  O   LIG d   1     116.713  20.517  74.993  0.00  0.00    -0.275 OA
ATOM      6  C   LIG d   1     116.335  21.857  74.749  0.00  0.00     0.095 A 
ATOM      7  C   LIG d   1     115.047  22.305  75.057  0.00  0.00     0.032 A 
ATOM      8  C   LIG d   1     114.701  23.643  74.779  0.00  0.00     0.094 A 
ATOM      9  C   LIG d   1     117.318  22.679  74.193  0.00  0.00     0.076 A 
ATOM     10  C   LIG d   1     116.942  24.000  73.976  0.00  0.00     0.090 A 
ATOM     11  C   LIG d   1     115.680  24.516  74.255  0.00  0.00     0.034 A 
ATOM     12  C   LIG d   1     115.749  25.895  73.912  0.00  0.00     0.041 A 
ATOM     13  C   LIG d   1     117.021  26.118  73.437  0.00  0.00     0.143 A 
ATOM     14  O   LIG d   1     117.750  24.973  73.470  0.00  0.00    -0.322 OA
ENDROOT
BRANCH   8  15
ATOM     15  O   LIG d   1     113.439  24.096  75.107  0.00  0.00    -0.354 OA
ATOM     16  C   LIG d   1     112.558  23.950  73.992  0.00  0.00     0.210 C 
ENDBRANCH   8  15
TORSDOF 1
ENDMDL
MODEL 9
REMARK VINA RESULT:      -4.9     30.789     32.761
REMARK  1 active torsions:
REMARK  status: ('A' for Active; 'I' for Inactive)
REMARK    1  A    between atoms: C_8  and  O_9 
ROOT
ATOM      1  O   LIG d   1     120.620  21.727  75.211  0.00  0.00    -0.260 OA
ATOM      2  C   LIG d   1     119.583  22.363  75.060  0.00  0.00     0.288 A 
ATOM      3  C   LIG d   1     119.612  23.825  74.905  0.00  0.00     0.083 A 
ATOM      4  C   LIG d   1     118.501  24.551  74.751  0.00  0.00     0.023 A 
ATOM      5  O   LIG d   1     118.334  21.758  75.028  0.00  0.00    -0.275 OA
ATOM      6  C   LIG d   1     117.148  22.510  74.859  0.00  0.00     0.095 A 
ATOM      7  C   LIG d   1     117.195  23.900  74.728  0.00  0.00     0.032 A 
ATOM      8  C   LIG d   1     115.989  24.616  74.583  0.00  0.00     0.094 A 
ATOM      9  C   LIG d   1     115.959  21.778  74.832  0.00  0.00     0.076 A 
ATOM     10  C   LIG d   1     114.800  22.524  74.646  0.00  0.00     0.090 A 
ATOM     11  C   LIG d   1     114.768  23.908  74.510  0.00  0.00     0.034 A 
ATOM     12  C   LIG d   1     113.400  24.239  74.310  0.00  0.00     0.041 A 
ATOM     13  C   LIG d   1     112.699  23.056  74.356  0.00  0.00     0.143 A 
ATOM     14  O   LIG d   1     113.541  22.011  74.562  0.00  0.00    -0.322 OA
ENDROOT
BRANCH   8  15
ATOM     15  O   LIG d   1     116.033  25.987  74.426  0.00  0.00    -0.354 OA
ATOM     16  C   LIG d   1     116.422  26.319  73.093  0.00  0.00     0.210 C 
ENDBRANCH   8  15
TORSDOF 1
ENDMDL
MODEL 10
REMARK VINA RESULT:      -4.9     47.699     49.282
REMARK  1 active torsions:
REMARK  status: ('A' for Active; 'I' for Inactive)
REMARK    1  A    between atoms: C_8  and  O_9 
ROOT
ATOM      1  O   LIG d   1      86.600   6.486  60.564  0.00  0.00    -0.260 OA
ATOM      2  C   LIG d   1      85.556   5.920  60.866  0.00  0.00     0.288 A 
ATOM      3  C   LIG d   1      84.256   6.578  60.664  0.00  0.00     0.083 A 
ATOM      4  C   LIG d   1      83.099   5.996  60.992  0.00  0.00     0.023 A 
ATOM      5  O   LIG d   1      85.529   4.643  61.410  0.00  0.00    -0.275 OA
ATOM      6  C   LIG d   1      84.314   4.008  61.758  0.00  0.00     0.095 A 
ATOM      7  C   LIG d   1      83.089   4.656  61.572  0.00  0.00     0.032 A 
ATOM      8  C   LIG d   1      81.901   3.999  61.950  0.00  0.00     0.094 A 
ATOM      9  C   LIG d   1      84.426   2.720  62.284  0.00  0.00     0.076 A 
ATOM     10  C   LIG d   1      83.224   2.097  62.604  0.00  0.00     0.090 A 
ATOM     11  C   LIG d   1      81.970   2.679  62.449  0.00  0.00     0.034 A 
ATOM     12  C   LIG d   1      81.037   1.688  62.864  0.00  0.00     0.041 A 
ATOM     13  C   LIG d   1      81.775   0.595  63.256  0.00  0.00     0.143 A 
ATOM     14  O   LIG d   1      83.102   0.835  63.104  0.00  0.00    -0.322 OA
ENDROOT
BRANCH   8  15
ATOM     15  O   LIG d   1      80.688   4.625  61.743  0.00  0.00    -0.354 OA
ATOM     16  C   LIG d   1      80.201   5.174  62.969  0.00  0.00     0.210 C 
ENDBRANCH   8  15
TORSDOF 1
ENDMDL
MODEL 11
REMARK VINA RESULT:      -4.9     33.193     34.547
REMARK  1 active torsions:
REMARK  status: ('A' for Active; 'I' for Inactive)
REMARK    1  A    between atoms: C_8  and  O_9 
ROOT
ATOM      1  O   LIG d   1      93.266  37.282 111.429  0.00  0.00    -0.260 OA
ATOM      2  C   LIG d   1      92.404  36.719 110.765  0.00  0.00     0.288 A 
ATOM      3  C   LIG d   1      91.551  37.478 109.838  0.00  0.00     0.083 A 
ATOM      4  C   LIG d   1      90.594  36.898 109.107  0.00  0.00     0.023 A 
ATOM      5  O   LIG d   1      92.177  35.352 110.843  0.00  0.00    -0.275 OA
ATOM      6  C   LIG d   1      91.173  34.720 110.072  0.00  0.00     0.095 A 
ATOM      7  C   LIG d   1      90.362  35.461 109.208  0.00  0.00     0.032 A 
ATOM      8  C   LIG d   1      89.358  34.798 108.473  0.00  0.00     0.094 A 
ATOM      9  C   LIG d   1      91.056  33.338 110.235  0.00  0.00     0.076 A 
ATOM     10  C   LIG d   1      90.079  32.723 109.459  0.00  0.00     0.090 A 
ATOM     11  C   LIG d   1      89.235  33.394 108.579  0.00  0.00     0.034 A 
ATOM     12  C   LIG d   1      88.430  32.386 107.982  0.00  0.00     0.041 A 
ATOM     13  C   LIG d   1      88.817  31.191 108.543  0.00  0.00     0.143 A 
ATOM     14  O   LIG d   1      89.815  31.387 109.441  0.00  0.00    -0.322 OA
ENDROOT
BRANCH   8  15
ATOM     15  O   LIG d   1      88.573  35.522 107.598  0.00  0.00    -0.354 OA
ATOM     16  C   LIG d   1      87.302  35.797 108.188  0.00  0.00     0.210 C 
ENDBRANCH   8  15
TORSDOF 1
ENDMDL
MODEL 12
REMARK VINA RESULT:      -4.8     33.469     34.764
REMARK  1 active torsions:
REMARK  status: ('A' for Active; 'I' for Inactive)
REMARK    1  A    between atoms: C_8  and  O_9 
ROOT
ATOM      1  O   LIG d   1      93.039  34.540 110.280  0.00  0.00    -0.260 OA
ATOM      2  C   LIG d   1      91.937  34.356 109.776  0.00  0.00     0.288 A 
ATOM      3  C   LIG d   1      91.210  35.460 109.130  0.00  0.00     0.083 A 
ATOM      4  C   LIG d   1      90.002  35.299 108.582  0.00  0.00     0.023 A 
ATOM      5  O   LIG d   1      91.312  33.117 109.780  0.00  0.00    -0.275 OA
ATOM      6  C   LIG d   1      90.037  32.926 109.198  0.00  0.00     0.095 A 
ATOM      7  C   LIG d   1      89.355  33.991 108.603  0.00  0.00     0.032 A 
ATOM      8  C   LIG d   1      88.077  33.764 108.052  0.00  0.00     0.094 A 
ATOM      9  C   LIG d   1      89.525  31.628 109.259  0.00  0.00     0.076 A 
ATOM     10  C   LIG d   1      88.280  31.446 108.667  0.00  0.00     0.090 A 
ATOM     11  C   LIG d   1      87.542  32.457 108.059  0.00  0.00     0.034 A 
ATOM     12  C   LIG d   1      86.367  31.826 107.567  0.00  0.00     0.041 A 
ATOM     13  C   LIG d   1      86.456  30.499 107.921  0.00  0.00     0.143 A 
ATOM     14  O   LIG d   1      87.613  30.261 108.590  0.00  0.00    -0.322 OA
ENDROOT
BRANCH   8  15
ATOM     15  O   LIG d   1      87.411  34.808 107.440  0.00  0.00    -0.354 OA
ATOM     16  C   LIG d   1      86.583  35.487 108.385  0.00  0.00     0.210 C 
ENDBRANCH   8  15
TORSDOF 1
ENDMDL
MODEL 13
REMARK VINA RESULT:      -4.8     18.674     20.287
REMARK  1 active torsions:
REMARK  status: ('A' for Active; 'I' for Inactive)
REMARK    1  A    between atoms: C_8  and  O_9 
ROOT
ATOM      1  O   LIG d   1      97.243  40.139  60.838  0.00  0.00    -0.260 OA
ATOM      2  C   LIG d   1      98.204  39.430  61.111  0.00  0.00     0.288 A 
ATOM      3  C   LIG d   1      98.335  38.083  60.533  0.00  0.00     0.083 A 
ATOM      4  C   LIG d   1      99.362  37.278  60.817  0.00  0.00     0.023 A 
ATOM      5  O   LIG d   1      99.214  39.840  61.969  0.00  0.00    -0.275 OA
ATOM      6  C   LIG d   1     100.313  39.004  62.277  0.00  0.00     0.095 A 
ATOM      7  C   LIG d   1     100.412  37.722  61.729  0.00  0.00     0.032 A 
ATOM      8  C   LIG d   1     101.512  36.911  62.077  0.00  0.00     0.094 A 
ATOM      9  C   LIG d   1     101.267  39.542  63.144  0.00  0.00     0.076 A 
ATOM     10  C   LIG d   1     102.353  38.720  63.425  0.00  0.00     0.090 A 
ATOM     11  C   LIG d   1     102.518  37.434  62.919  0.00  0.00     0.034 A 
ATOM     12  C   LIG d   1     103.765  36.981  63.433  0.00  0.00     0.041 A 
ATOM     13  C   LIG d   1     104.258  37.998  64.218  0.00  0.00     0.143 A 
ATOM     14  O   LIG d   1     103.406  39.054  64.221  0.00  0.00    -0.322 OA
ENDROOT
BRANCH   8  15
ATOM     15  O   LIG d   1     101.627  35.654  61.517  0.00  0.00    -0.354 OA
ATOM     16  C   LIG d   1     102.509  35.693  60.394  0.00  0.00     0.210 C 
ENDBRANCH   8  15
TORSDOF 1
ENDMDL
MODEL 14
REMARK VINA RESULT:      -4.7     49.871     51.668
REMARK  1 active torsions:
REMARK  status: ('A' for Active; 'I' for Inactive)
REMARK    1  A    between atoms: C_8  and  O_9 
ROOT
ATOM      1  O   LIG d   1     109.841  18.031 112.987  0.00  0.00    -0.260 OA
ATOM      2  C   LIG d   1     110.452  16.989 113.197  0.00  0.00     0.288 A 
ATOM      3  C   LIG d   1     109.826  15.884 113.938  0.00  0.00     0.083 A 
ATOM      4  C   LIG d   1     110.466  14.740 114.195  0.00  0.00     0.023 A 
ATOM      5  O   LIG d   1     111.753  16.786 112.758  0.00  0.00    -0.275 OA
ATOM      6  C   LIG d   1     112.444  15.579 113.015  0.00  0.00     0.095 A 
ATOM      7  C   LIG d   1     111.837  14.546 113.734  0.00  0.00     0.032 A 
ATOM      8  C   LIG d   1     112.566  13.366 113.988  0.00  0.00     0.094 A 
ATOM      9  C   LIG d   1     113.743  15.498 112.508  0.00  0.00     0.076 A 
ATOM     10  C   LIG d   1     114.407  14.300 112.748  0.00  0.00     0.090 A 
ATOM     11  C   LIG d   1     113.869  13.230 113.457  0.00  0.00     0.034 A 
ATOM     12  C   LIG d   1     114.866  12.217 113.432  0.00  0.00     0.041 A 
ATOM     13  C   LIG d   1     115.935  12.736 112.738  0.00  0.00     0.143 A 
ATOM     14  O   LIG d   1     115.665  13.999 112.322  0.00  0.00    -0.322 OA
ENDROOT
BRANCH   8  15
ATOM     15  O   LIG d   1     111.961  12.333 114.675  0.00  0.00    -0.354 OA
ATOM     16  C   LIG d   1     112.385  12.332 116.039  0.00  0.00     0.210 C 
ENDBRANCH   8  15
TORSDOF 1
ENDMDL
MODEL 15
REMARK VINA RESULT:      -4.7     30.270     32.248
REMARK  1 active torsions:
REMARK  status: ('A' for Active; 'I' for Inactive)
REMARK    1  A    between atoms: C_8  and  O_9 
ROOT
ATOM      1  O   LIG d   1     112.088  35.817  98.850  0.00  0.00    -0.260 OA
ATOM      2  C   LIG d   1     111.917  34.834  99.562  0.00  0.00     0.288 A 
ATOM      3  C   LIG d   1     112.347  33.499  99.118  0.00  0.00     0.083 A 
ATOM      4  C   LIG d   1     112.166  32.404  99.863  0.00  0.00     0.023 A 
ATOM      5  O   LIG d   1     111.316  34.912 100.810  0.00  0.00    -0.275 OA
ATOM      6  C   LIG d   1     111.122  33.765 101.615  0.00  0.00     0.095 A 
ATOM      7  C   LIG d   1     111.524  32.502 101.170  0.00  0.00     0.032 A 
ATOM      8  C   LIG d   1     111.294  31.381 101.992  0.00  0.00     0.094 A 
ATOM      9  C   LIG d   1     110.517  33.983 102.854  0.00  0.00     0.076 A 
ATOM     10  C   LIG d   1     110.348  32.852 103.646  0.00  0.00     0.090 A 
ATOM     11  C   LIG d   1     110.721  31.565 103.270  0.00  0.00     0.034 A 
ATOM     12  C   LIG d   1     110.399  30.737 104.380  0.00  0.00     0.041 A 
ATOM     13  C   LIG d   1     109.843  31.557 105.334  0.00  0.00     0.143 A 
ATOM     14  O   LIG d   1     109.807  32.841 104.896  0.00  0.00    -0.322 OA
ENDROOT
BRANCH   8  15
ATOM     15  O   LIG d   1     111.714  30.136 101.567  0.00  0.00    -0.354 OA
ATOM     16  C   LIG d   1     112.999  29.836 102.113  0.00  0.00     0.210 C 
ENDBRANCH   8  15
TORSDOF 1
ENDMDL
MODEL 16
REMARK VINA RESULT:      -4.7     33.030     34.108
REMARK  1 active torsions:
REMARK  status: ('A' for Active; 'I' for Inactive)
REMARK    1  A    between atoms: C_8  and  O_9 
ROOT
ATOM      1  O   LIG d   1     116.870  18.200  77.849  0.00  0.00    -0.260 OA
ATOM      2  C   LIG d   1     115.895  18.318  78.583  0.00  0.00     0.288 A 
ATOM      3  C   LIG d   1     114.878  17.258  78.660  0.00  0.00     0.083 A 
ATOM      4  C   LIG d   1     113.797  17.358  79.440  0.00  0.00     0.023 A 
ATOM      5  O   LIG d   1     115.689  19.438  79.376  0.00  0.00    -0.275 OA
ATOM      6  C   LIG d   1     114.554  19.558  80.212  0.00  0.00     0.095 A 
ATOM      7  C   LIG d   1     113.590  18.547  80.260  0.00  0.00     0.032 A 
ATOM      8  C   LIG d   1     112.463  18.714  81.091  0.00  0.00     0.094 A 
ATOM      9  C   LIG d   1     114.473  20.730  80.968  0.00  0.00     0.076 A 
ATOM     10  C   LIG d   1     113.364  20.830  81.801  0.00  0.00     0.090 A 
ATOM     11  C   LIG d   1     112.364  19.867  81.900  0.00  0.00     0.034 A 
ATOM     12  C   LIG d   1     111.459  20.359  82.880  0.00  0.00     0.041 A 
ATOM     13  C   LIG d   1     111.949  21.577  83.291  0.00  0.00     0.143 A 
ATOM     14  O   LIG d   1     113.103  21.871  82.640  0.00  0.00    -0.322 OA
ENDROOT
BRANCH   8  15
ATOM     15  O   LIG d   1     111.522  17.706  81.161  0.00  0.00    -0.354 OA
ATOM     16  C   LIG d   1     110.379  18.042  80.374  0.00  0.00     0.210 C 
ENDBRANCH   8  15
TORSDOF 1
ENDMDL
MODEL 17
REMARK VINA RESULT:      -4.6     24.241     26.007
REMARK  1 active torsions:
REMARK  status: ('A' for Active; 'I' for Inactive)
REMARK    1  A    between atoms: C_8  and  O_9 
ROOT
ATOM      1  O   LIG d   1      79.089  33.071  72.174  0.00  0.00    -0.260 OA
ATOM      2  C   LIG d   1      79.491  32.247  71.362  0.00  0.00     0.288 A 
ATOM      3  C   LIG d   1      79.482  30.810  71.678  0.00  0.00     0.083 A 
ATOM      4  C   LIG d   1      79.924  29.885  70.822  0.00  0.00     0.023 A 
ATOM      5  O   LIG d   1      79.973  32.605  70.111  0.00  0.00    -0.275 OA
ATOM      6  C   LIG d   1      80.439  31.639  69.188  0.00  0.00     0.095 A 
ATOM      7  C   LIG d   1      80.437  30.280  69.514  0.00  0.00     0.032 A 
ATOM      8  C   LIG d   1      80.928  29.350  68.575  0.00  0.00     0.094 A 
ATOM      9  C   LIG d   1      80.887  32.132  67.960  0.00  0.00     0.076 A 
ATOM     10  C   LIG d   1      81.324  31.173  67.053  0.00  0.00     0.090 A 
ATOM     11  C   LIG d   1      81.353  29.805  67.307  0.00  0.00     0.034 A 
ATOM     12  C   LIG d   1      81.833  29.207  66.109  0.00  0.00     0.041 A 
ATOM     13  C   LIG d   1      82.078  30.235  65.228  0.00  0.00     0.143 A 
ATOM     14  O   LIG d   1      81.775  31.431  65.794  0.00  0.00    -0.322 OA
ENDROOT
BRANCH   8  15
ATOM     15  O   LIG d   1      80.903  28.004  68.882  0.00  0.00    -0.354 OA
ATOM     16  C   LIG d   1      79.763  27.383  68.286  0.00  0.00     0.210 C 
ENDBRANCH   8  15
TORSDOF 1
ENDMDL
MODEL 18
REMARK VINA RESULT:      -4.6     46.993     48.540
REMARK  1 active torsions:
REMARK  status: ('A' for Active; 'I' for Inactive)
REMARK    1  A    between atoms: C_8  and  O_9 
ROOT
ATOM      1  O   LIG d   1      89.696   3.707  63.384  0.00  0.00    -0.260 OA
ATOM      2  C   LIG d   1      88.479   3.578  63.317  0.00  0.00     0.288 A 
ATOM      3  C   LIG d   1      87.842   2.285  63.610  0.00  0.00     0.083 A 
ATOM      4  C   LIG d   1      86.520   2.105  63.536  0.00  0.00     0.023 A 
ATOM      5  O   LIG d   1      87.635   4.623  62.968  0.00  0.00    -0.275 OA
ATOM      6  C   LIG d   1      86.233   4.452  62.890  0.00  0.00     0.095 A 
ATOM      7  C   LIG d   1      85.647   3.212  63.157  0.00  0.00     0.032 A 
ATOM      8  C   LIG d   1      84.248   3.077  63.050  0.00  0.00     0.094 A 
ATOM      9  C   LIG d   1      85.498   5.587  62.539  0.00  0.00     0.076 A 
ATOM     10  C   LIG d   1      84.119   5.414  62.486  0.00  0.00     0.090 A 
ATOM     11  C   LIG d   1      83.466   4.211  62.736  0.00  0.00     0.034 A 
ATOM     12  C   LIG d   1      82.079   4.496  62.603  0.00  0.00     0.041 A 
ATOM     13  C   LIG d   1      81.983   5.827  62.267  0.00  0.00     0.143 A 
ATOM     14  O   LIG d   1      83.216   6.390  62.191  0.00  0.00    -0.322 OA
ENDROOT
BRANCH   8  15
ATOM     15  O   LIG d   1      83.663   1.860  63.338  0.00  0.00    -0.354 OA
ATOM     16  C   LIG d   1      83.292   1.193  62.132  0.00  0.00     0.210 C 
ENDBRANCH   8  15
TORSDOF 1
ENDMDL
MODEL 19
REMARK VINA RESULT:      -4.6     33.749     35.530
REMARK  1 active torsions:
REMARK  status: ('A' for Active; 'I' for Inactive)
REMARK    1  A    between atoms: C_8  and  O_9 
ROOT
ATOM      1  O   LIG d   1      93.303  33.613 111.002  0.00  0.00    -0.260 OA
ATOM      2  C   LIG d   1      92.208  33.210 110.630  0.00  0.00     0.288 A 
ATOM      3  C   LIG d   1      91.703  31.896 111.059  0.00  0.00     0.083 A 
ATOM      4  C   LIG d   1      90.519  31.420 110.663  0.00  0.00     0.023 A 
ATOM      5  O   LIG d   1      91.385  33.950 109.793  0.00  0.00    -0.275 OA
ATOM      6  C   LIG d   1      90.126  33.464 109.368  0.00  0.00     0.095 A 
ATOM      7  C   LIG d   1      89.670  32.207 109.775  0.00  0.00     0.032 A 
ATOM      8  C   LIG d   1      88.419  31.750 109.313  0.00  0.00     0.094 A 
ATOM      9  C   LIG d   1      89.392  34.313 108.537  0.00  0.00     0.076 A 
ATOM     10  C   LIG d   1      88.147  33.835 108.141  0.00  0.00     0.090 A 
ATOM     11  C   LIG d   1      87.628  32.595 108.503  0.00  0.00     0.034 A 
ATOM     12  C   LIG d   1      86.337  32.537 107.911  0.00  0.00     0.041 A 
ATOM     13  C   LIG d   1      86.166  33.716 107.224  0.00  0.00     0.143 A 
ATOM     14  O   LIG d   1      87.260  34.508 107.356  0.00  0.00    -0.322 OA
ENDROOT
BRANCH   8  15
ATOM     15  O   LIG d   1      87.953  30.520 109.734  0.00  0.00    -0.354 OA
ATOM     16  C   LIG d   1      87.049  30.683 110.828  0.00  0.00     0.210 C 
ENDBRANCH   8  15
TORSDOF 1
ENDMDL
MODEL 20
REMARK VINA RESULT:      -4.6     16.745     18.877
REMARK  1 active torsions:
REMARK  status: ('A' for Active; 'I' for Inactive)
REMARK    1  A    between atoms: C_8  and  O_9 
ROOT
ATOM      1  O   LIG d   1     106.802  43.179  87.947  0.00  0.00    -0.260 OA
ATOM      2  C   LIG d   1     107.228  43.613  89.011  0.00  0.00     0.288 A 
ATOM      3  C   LIG d   1     108.248  44.673  89.039  0.00  0.00     0.083 A 
ATOM      4  C   LIG d   1     108.744  45.160  90.180  0.00  0.00     0.023 A 
ATOM      5  O   LIG d   1     106.787  43.141  90.240  0.00  0.00    -0.275 OA
ATOM      6  C   LIG d   1     107.296  43.650  91.458  0.00  0.00     0.095 A 
ATOM      7  C   LIG d   1     108.276  44.647  91.463  0.00  0.00     0.032 A 
ATOM      8  C   LIG d   1     108.772  45.113  92.698  0.00  0.00     0.094 A 
ATOM      9  C   LIG d   1     106.758  43.098  92.623  0.00  0.00     0.076 A 
ATOM     10  C   LIG d   1     107.250  43.619  93.815  0.00  0.00     0.090 A 
ATOM     11  C   LIG d   1     108.225  44.609  93.899  0.00  0.00     0.034 A 
ATOM     12  C   LIG d   1     108.397  44.855  95.289  0.00  0.00     0.041 A 
ATOM     13  C   LIG d   1     107.544  44.000  95.948  0.00  0.00     0.143 A 
ATOM     14  O   LIG d   1     106.847  43.245  95.061  0.00  0.00    -0.322 OA
ENDROOT
BRANCH   8  15
ATOM     15  O   LIG d   1     109.721  46.116  92.708  0.00  0.00    -0.354 OA
ATOM     16  C   LIG d   1     111.027  45.559  92.861  0.00  0.00     0.210 C 
ENDBRANCH   8  15
TORSDOF 1
ENDMDL
