MODEL 1
REMARK VINA RESULT:      -5.2      0.000      0.000
REMARK  7 active torsions:
REMARK  status: ('A' for Active; 'I' for Inactive)
REMARK    1  A    between atoms: O_2  and  C_3 
REMARK    2  A    between atoms: C_4  and  O_5 
REMARK    3  A    between atoms: C_8  and  C_9 
REMARK    4  A    between atoms: C_13  and  C_17 
REMARK    5  A    between atoms: C_19  and  O_20 
REMARK    6  A    between atoms: C_22  and  O_25 
REMARK    7  A    between atoms: C_28  and  O_29 
ROOT
ATOM      1  C   LIG d   1      11.978  17.376  37.675  0.00  0.00     0.161 C 
ATOM      2  C   LIG d   1      11.800  17.826  39.128  0.00  0.00     0.052 C 
ATOM      3  C   LIG d   1      10.362  18.031  39.530  0.00  0.00     0.176 C 
ATOM      4  O   LIG d   1       9.820  16.721  39.711  0.00  0.00    -0.380 OA
ATOM      5  C   LIG d   1      10.895  15.813  40.055  0.00  0.00     0.161 C 
ATOM      6  C   LIG d   1      12.197  16.612  39.919  0.00  0.00     0.052 C 
ATOM      7  C   LIG d   1      13.209  15.929  39.035  0.00  0.00     0.176 C 
ATOM      8  O   LIG d   1      12.798  16.188  37.689  0.00  0.00    -0.380 OA
ENDROOT
BRANCH   1   9
ATOM      9  C   LIG d   1      12.641  18.456  36.850  0.00  0.00    -0.024 A 
ATOM     10  C   LIG d   1      13.024  19.674  37.423  0.00  0.00     0.049 A 
ATOM     11  C   LIG d   1      13.623  20.687  36.666  0.00  0.00     0.104 A 
ATOM     12  C   LIG d   1      13.781  20.511  35.278  0.00  0.00     0.135 A 
ATOM     13  C   LIG d   1      13.363  19.296  34.686  0.00  0.00     0.104 A 
ATOM     14  C   LIG d   1      12.828  18.272  35.477  0.00  0.00     0.049 A 
BRANCH  11  15
ATOM     15  O   LIG d   1      14.025  21.860  37.247  0.00  0.00    -0.353 OA
ATOM     16  C   LIG d   1      15.241  21.841  37.987  0.00  0.00     0.210 C 
ENDBRANCH  11  15
BRANCH  12  17
ATOM     17  O   LIG d   1      14.374  21.409  34.419  0.00  0.00    -0.351 OA
ATOM     18  C   LIG d   1      15.795  21.434  34.365  0.00  0.00     0.210 C 
ENDBRANCH  12  17
BRANCH  13  19
ATOM     19  O   LIG d   1      13.521  19.167  33.324  0.00  0.00    -0.353 OA
ATOM     20  C   LIG d   1      14.459  18.179  32.903  0.00  0.00     0.210 C 
ENDBRANCH  13  19
ENDBRANCH   1   9
BRANCH   5  21
ATOM     21  C   LIG d   1      10.667  15.228  41.439  0.00  0.00    -0.026 A 
ATOM     22  C   LIG d   1       9.436  15.369  42.115  0.00  0.00     0.049 A 
ATOM     23  C   LIG d   1       9.225  14.796  43.382  0.00  0.00     0.102 A 
ATOM     24  C   LIG d   1      10.276  14.120  44.006  0.00  0.00     0.101 A 
ATOM     25  C   LIG d   1      11.514  14.005  43.359  0.00  0.00     0.040 A 
ATOM     26  C   LIG d   1      11.701  14.562  42.091  0.00  0.00     0.012 A 
BRANCH  23  27
ATOM     27  O   LIG d   1       7.948  14.991  43.855  0.00  0.00    -0.353 OA
ATOM     28  C   LIG d   1       7.591  16.310  44.248  0.00  0.00     0.210 C 
ENDBRANCH  23  27
BRANCH  24  29
ATOM     29  O   LIG d   1      10.074  13.477  45.200  0.00  0.00    -0.353 OA
ATOM     30  C   LIG d   1       9.740  12.098  45.089  0.00  0.00     0.210 C 
ENDBRANCH  24  29
ENDBRANCH   5  21
TORSDOF 7
ENDMDL
MODEL 2
REMARK VINA RESULT:      -5.1      0.312      2.242
REMARK  7 active torsions:
REMARK  status: ('A' for Active; 'I' for Inactive)
REMARK    1  A    between atoms: O_2  and  C_3 
REMARK    2  A    between atoms: C_4  and  O_5 
REMARK    3  A    between atoms: C_8  and  C_9 
REMARK    4  A    between atoms: C_13  and  C_17 
REMARK    5  A    between atoms: C_19  and  O_20 
REMARK    6  A    between atoms: C_22  and  O_25 
REMARK    7  A    between atoms: C_28  and  O_29 
ROOT
ATOM      1  C   LIG d   1      11.909  17.429  37.716  0.00  0.00     0.161 C 
ATOM      2  C   LIG d   1      11.772  17.860  39.179  0.00  0.00     0.052 C 
ATOM      3  C   LIG d   1      10.346  18.061  39.622  0.00  0.00     0.176 C 
ATOM      4  O   LIG d   1       9.806  16.750  39.802  0.00  0.00    -0.380 OA
ATOM      5  C   LIG d   1      10.889  15.836  40.104  0.00  0.00     0.161 C 
ATOM      6  C   LIG d   1      12.188  16.636  39.943  0.00  0.00     0.052 C 
ATOM      7  C   LIG d   1      13.174  15.963  39.022  0.00  0.00     0.176 C 
ATOM      8  O   LIG d   1      12.727  16.240  37.692  0.00  0.00    -0.380 OA
ENDROOT
BRANCH   1   9
ATOM      9  C   LIG d   1      12.551  18.519  36.887  0.00  0.00    -0.024 A 
ATOM     10  C   LIG d   1      12.755  18.359  35.511  0.00  0.00     0.049 A 
ATOM     11  C   LIG d   1      13.362  19.354  34.738  0.00  0.00     0.104 A 
ATOM     12  C   LIG d   1      13.848  20.518  35.365  0.00  0.00     0.135 A 
ATOM     13  C   LIG d   1      13.676  20.670  36.761  0.00  0.00     0.104 A 
ATOM     14  C   LIG d   1      13.006  19.689  37.502  0.00  0.00     0.049 A 
BRANCH  11  15
ATOM     15  O   LIG d   1      13.524  19.199  33.388  0.00  0.00    -0.353 OA
ATOM     16  C   LIG d   1      14.466  18.227  32.948  0.00  0.00     0.210 C 
ENDBRANCH  11  15
BRANCH  12  17
ATOM     17  O   LIG d   1      14.441  21.583  34.727  0.00  0.00    -0.351 OA
ATOM     18  C   LIG d   1      15.812  21.462  34.371  0.00  0.00     0.210 C 
ENDBRANCH  12  17
BRANCH  13  19
ATOM     19  O   LIG d   1      14.177  21.815  37.340  0.00  0.00    -0.353 OA
ATOM     20  C   LIG d   1      15.386  21.654  38.079  0.00  0.00     0.210 C 
ENDBRANCH  13  19
ENDBRANCH   1   9
BRANCH   5  21
ATOM     21  C   LIG d   1      10.699  15.233  41.486  0.00  0.00    -0.026 A 
ATOM     22  C   LIG d   1       9.638  15.626  42.330  0.00  0.00     0.049 A 
ATOM     23  C   LIG d   1       9.451  15.038  43.595  0.00  0.00     0.102 A 
ATOM     24  C   LIG d   1      10.369  14.086  44.044  0.00  0.00     0.101 A 
ATOM     25  C   LIG d   1      11.446  13.715  43.228  0.00  0.00     0.040 A 
ATOM     26  C   LIG d   1      11.606  14.293  41.966  0.00  0.00     0.012 A 
BRANCH  23  27
ATOM     27  O   LIG d   1       8.335  15.507  44.247  0.00  0.00    -0.353 OA
ATOM     28  C   LIG d   1       7.117  15.546  43.512  0.00  0.00     0.210 C 
ENDBRANCH  23  27
BRANCH  24  29
ATOM     29  O   LIG d   1      10.165  13.433  45.233  0.00  0.00    -0.353 OA
ATOM     30  C   LIG d   1       9.437  12.215  45.130  0.00  0.00     0.210 C 
ENDBRANCH  24  29
ENDBRANCH   5  21
TORSDOF 7
ENDMDL
MODEL 3
REMARK VINA RESULT:      -5.1      1.500      9.460
REMARK  7 active torsions:
REMARK  status: ('A' for Active; 'I' for Inactive)
REMARK    1  A    between atoms: O_2  and  C_3 
REMARK    2  A    between atoms: C_4  and  O_5 
REMARK    3  A    between atoms: C_8  and  C_9 
REMARK    4  A    between atoms: C_13  and  C_17 
REMARK    5  A    between atoms: C_19  and  O_20 
REMARK    6  A    between atoms: C_22  and  O_25 
REMARK    7  A    between atoms: C_28  and  O_29 
ROOT
ATOM      1  C   LIG d   1      10.637  16.976  39.158  0.00  0.00     0.161 C 
ATOM      2  C   LIG d   1      11.865  17.884  39.277  0.00  0.00     0.052 C 
ATOM      3  C   LIG d   1      13.157  17.213  38.892  0.00  0.00     0.176 C 
ATOM      4  O   LIG d   1      13.154  17.154  37.464  0.00  0.00    -0.380 OA
ATOM      5  C   LIG d   1      12.326  18.228  36.953  0.00  0.00     0.161 C 
ATOM      6  C   LIG d   1      11.666  18.883  38.173  0.00  0.00     0.052 C 
ATOM      7  C   LIG d   1      10.167  18.974  38.044  0.00  0.00     0.176 C 
ATOM      8  O   LIG d   1       9.663  17.672  38.352  0.00  0.00    -0.380 OA
ENDROOT
BRANCH   1   9
ATOM      9  C   LIG d   1      10.059  16.663  40.520  0.00  0.00    -0.024 A 
ATOM     10  C   LIG d   1       8.936  17.344  41.005  0.00  0.00     0.049 A 
ATOM     11  C   LIG d   1       8.403  17.076  42.270  0.00  0.00     0.104 A 
ATOM     12  C   LIG d   1       9.050  16.149  43.111  0.00  0.00     0.135 A 
ATOM     13  C   LIG d   1      10.205  15.483  42.640  0.00  0.00     0.104 A 
ATOM     14  C   LIG d   1      10.681  15.721  41.345  0.00  0.00     0.049 A 
BRANCH  11  15
ATOM     15  O   LIG d   1       7.284  17.724  42.717  0.00  0.00    -0.353 OA
ATOM     16  C   LIG d   1       7.062  19.049  42.247  0.00  0.00     0.210 C 
ENDBRANCH  11  15
BRANCH  12  17
ATOM     17  O   LIG d   1       8.623  15.771  44.363  0.00  0.00    -0.351 OA
ATOM     18  C   LIG d   1       7.589  14.799  44.445  0.00  0.00     0.210 C 
ENDBRANCH  12  17
BRANCH  13  19
ATOM     19  O   LIG d   1      10.818  14.595  43.497  0.00  0.00    -0.353 OA
ATOM     20  C   LIG d   1      12.182  14.299  43.206  0.00  0.00     0.210 C 
ENDBRANCH  13  19
ENDBRANCH   1   9
BRANCH   5  21
ATOM     21  C   LIG d   1      13.160  19.181  36.113  0.00  0.00    -0.026 A 
ATOM     22  C   LIG d   1      13.633  20.408  36.626  0.00  0.00     0.049 A 
ATOM     23  C   LIG d   1      14.431  21.269  35.850  0.00  0.00     0.102 A 
ATOM     24  C   LIG d   1      14.715  20.923  34.527  0.00  0.00     0.101 A 
ATOM     25  C   LIG d   1      14.221  19.724  33.997  0.00  0.00     0.040 A 
ATOM     26  C   LIG d   1      13.446  18.870  34.787  0.00  0.00     0.012 A 
BRANCH  23  27
ATOM     27  O   LIG d   1      14.842  22.386  36.537  0.00  0.00    -0.353 OA
ATOM     28  C   LIG d   1      16.046  22.286  37.289  0.00  0.00     0.210 C 
ENDBRANCH  23  27
BRANCH  24  29
ATOM     29  O   LIG d   1      15.562  21.697  33.776  0.00  0.00    -0.353 OA
ATOM     30  C   LIG d   1      16.916  21.261  33.759  0.00  0.00     0.210 C 
ENDBRANCH  24  29
ENDBRANCH   5  21
TORSDOF 7
ENDMDL
MODEL 4
REMARK VINA RESULT:      -5.1     15.939     17.839
REMARK  7 active torsions:
REMARK  status: ('A' for Active; 'I' for Inactive)
REMARK    1  A    between atoms: O_2  and  C_3 
REMARK    2  A    between atoms: C_4  and  O_5 
REMARK    3  A    between atoms: C_8  and  C_9 
REMARK    4  A    between atoms: C_13  and  C_17 
REMARK    5  A    between atoms: C_19  and  O_20 
REMARK    6  A    between atoms: C_22  and  O_25 
REMARK    7  A    between atoms: C_28  and  O_29 
ROOT
ATOM      1  C   LIG d   1      23.886  16.711  49.320  0.00  0.00     0.161 C 
ATOM      2  C   LIG d   1      24.422  17.331  50.614  0.00  0.00     0.052 C 
ATOM      3  C   LIG d   1      25.079  18.673  50.419  0.00  0.00     0.176 C 
ATOM      4  O   LIG d   1      24.011  19.605  50.239  0.00  0.00    -0.380 OA
ATOM      5  C   LIG d   1      22.826  19.093  50.897  0.00  0.00     0.161 C 
ATOM      6  C   LIG d   1      23.175  17.678  51.376  0.00  0.00     0.052 C 
ATOM      7  C   LIG d   1      22.179  16.645  50.914  0.00  0.00     0.176 C 
ATOM      8  O   LIG d   1      22.503  16.366  49.549  0.00  0.00    -0.380 OA
ENDROOT
BRANCH   1   9
ATOM      9  C   LIG d   1      24.675  15.478  48.941  0.00  0.00    -0.024 A 
ATOM     10  C   LIG d   1      25.159  15.299  47.640  0.00  0.00     0.049 A 
ATOM     11  C   LIG d   1      25.876  14.155  47.274  0.00  0.00     0.104 A 
ATOM     12  C   LIG d   1      26.056  13.121  48.214  0.00  0.00     0.135 A 
ATOM     13  C   LIG d   1      25.538  13.281  49.520  0.00  0.00     0.104 A 
ATOM     14  C   LIG d   1      24.882  14.465  49.881  0.00  0.00     0.049 A 
BRANCH  11  15
ATOM     15  O   LIG d   1      26.374  14.008  46.008  0.00  0.00    -0.353 OA
ATOM     16  C   LIG d   1      26.806  15.185  45.333  0.00  0.00     0.210 C 
ENDBRANCH  11  15
BRANCH  12  17
ATOM     17  O   LIG d   1      26.758  11.957  47.999  0.00  0.00    -0.351 OA
ATOM     18  C   LIG d   1      28.177  12.016  48.079  0.00  0.00     0.210 C 
ENDBRANCH  12  17
BRANCH  13  19
ATOM     19  O   LIG d   1      25.722  12.242  50.407  0.00  0.00    -0.353 OA
ATOM     20  C   LIG d   1      24.871  12.251  51.551  0.00  0.00     0.210 C 
ENDBRANCH  13  19
ENDBRANCH   1   9
BRANCH   5  21
ATOM     21  C   LIG d   1      22.393  20.035  52.009  0.00  0.00    -0.026 A 
ATOM     22  C   LIG d   1      21.231  19.798  52.775  0.00  0.00     0.049 A 
ATOM     23  C   LIG d   1      20.856  20.658  53.823  0.00  0.00     0.102 A 
ATOM     24  C   LIG d   1      21.622  21.799  54.073  0.00  0.00     0.101 A 
ATOM     25  C   LIG d   1      22.757  22.062  53.295  0.00  0.00     0.040 A 
ATOM     26  C   LIG d   1      23.128  21.187  52.270  0.00  0.00     0.012 A 
BRANCH  23  27
ATOM     27  O   LIG d   1      19.730  20.235  54.490  0.00  0.00    -0.353 OA
ATOM     28  C   LIG d   1      19.921  19.488  55.686  0.00  0.00     0.210 C 
ENDBRANCH  23  27
BRANCH  24  29
ATOM     29  O   LIG d   1      21.332  22.608  55.142  0.00  0.00    -0.353 OA
ATOM     30  C   LIG d   1      22.466  23.141  55.815  0.00  0.00     0.210 C 
ENDBRANCH  24  29
ENDBRANCH   5  21
TORSDOF 7
ENDMDL
MODEL 5
REMARK VINA RESULT:      -5.1      1.712      9.683
REMARK  7 active torsions:
REMARK  status: ('A' for Active; 'I' for Inactive)
REMARK    1  A    between atoms: O_2  and  C_3 
REMARK    2  A    between atoms: C_4  and  O_5 
REMARK    3  A    between atoms: C_8  and  C_9 
REMARK    4  A    between atoms: C_13  and  C_17 
REMARK    5  A    between atoms: C_19  and  O_20 
REMARK    6  A    between atoms: C_22  and  O_25 
REMARK    7  A    between atoms: C_28  and  O_29 
ROOT
ATOM      1  C   LIG d   1      10.629  15.340  40.087  0.00  0.00     0.161 C 
ATOM      2  C   LIG d   1      12.015  15.993  40.073  0.00  0.00     0.052 C 
ATOM      3  C   LIG d   1      12.871  15.577  38.905  0.00  0.00     0.176 C 
ATOM      4  O   LIG d   1      12.359  16.288  37.776  0.00  0.00    -0.380 OA
ATOM      5  C   LIG d   1      11.718  17.502  38.238  0.00  0.00     0.161 C 
ATOM      6  C   LIG d   1      11.716  17.434  39.771  0.00  0.00     0.052 C 
ATOM      7  C   LIG d   1      10.345  17.643  40.360  0.00  0.00     0.176 C 
ATOM      8  O   LIG d   1       9.655  16.399  40.209  0.00  0.00    -0.380 OA
ENDROOT
BRANCH   1   9
ATOM      9  C   LIG d   1      10.497  14.375  41.244  0.00  0.00    -0.024 A 
ATOM     10  C   LIG d   1      10.802  13.017  41.094  0.00  0.00     0.049 A 
ATOM     11  C   LIG d   1      10.667  12.112  42.152  0.00  0.00     0.104 A 
ATOM     12  C   LIG d   1      10.143  12.558  43.381  0.00  0.00     0.135 A 
ATOM     13  C   LIG d   1       9.799  13.922  43.528  0.00  0.00     0.104 A 
ATOM     14  C   LIG d   1      10.006  14.821  42.474  0.00  0.00     0.049 A 
BRANCH  11  15
ATOM     15  O   LIG d   1      11.003  10.794  42.002  0.00  0.00    -0.353 OA
ATOM     16  C   LIG d   1      12.386  10.479  41.885  0.00  0.00     0.210 C 
ENDBRANCH  11  15
BRANCH  12  17
ATOM     17  O   LIG d   1       9.980  11.787  44.509  0.00  0.00    -0.351 OA
ATOM     18  C   LIG d   1       8.814  10.977  44.595  0.00  0.00     0.210 C 
ENDBRANCH  12  17
BRANCH  13  19
ATOM     19  O   LIG d   1       9.276  14.317  44.740  0.00  0.00    -0.353 OA
ATOM     20  C   LIG d   1       8.245  15.300  44.675  0.00  0.00     0.210 C 
ENDBRANCH  13  19
ENDBRANCH   1   9
BRANCH   5  21
ATOM     21  C   LIG d   1      12.429  18.721  37.672  0.00  0.00    -0.026 A 
ATOM     22  C   LIG d   1      11.957  19.393  36.525  0.00  0.00     0.049 A 
ATOM     23  C   LIG d   1      12.604  20.539  36.028  0.00  0.00     0.102 A 
ATOM     24  C   LIG d   1      13.769  20.988  36.655  0.00  0.00     0.101 A 
ATOM     25  C   LIG d   1      14.266  20.307  37.774  0.00  0.00     0.040 A 
ATOM     26  C   LIG d   1      13.601  19.181  38.267  0.00  0.00     0.012 A 
BRANCH  23  27
ATOM     27  O   LIG d   1      11.967  21.088  34.939  0.00  0.00    -0.353 OA
ATOM     28  C   LIG d   1      10.665  21.624  35.145  0.00  0.00     0.210 C 
ENDBRANCH  23  27
BRANCH  24  29
ATOM     29  O   LIG d   1      14.371  22.151  36.247  0.00  0.00    -0.353 OA
ATOM     30  C   LIG d   1      15.671  22.371  36.781  0.00  0.00     0.210 C 
ENDBRANCH  24  29
ENDBRANCH   5  21
TORSDOF 7
ENDMDL
MODEL 6
REMARK VINA RESULT:      -5.1      1.629      9.521
REMARK  7 active torsions:
REMARK  status: ('A' for Active; 'I' for Inactive)
REMARK    1  A    between atoms: O_2  and  C_3 
REMARK    2  A    between atoms: C_4  and  O_5 
REMARK    3  A    between atoms: C_8  and  C_9 
REMARK    4  A    between atoms: C_13  and  C_17 
REMARK    5  A    between atoms: C_19  and  O_20 
REMARK    6  A    between atoms: C_22  and  O_25 
REMARK    7  A    between atoms: C_28  and  O_29 
ROOT
ATOM      1  C   LIG d   1      10.419  15.410  40.331  0.00  0.00     0.161 C 
ATOM      2  C   LIG d   1      11.815  16.041  40.304  0.00  0.00     0.052 C 
ATOM      3  C   LIG d   1      12.687  15.541  39.182  0.00  0.00     0.176 C 
ATOM      4  O   LIG d   1      12.208  16.187  38.000  0.00  0.00    -0.380 OA
ATOM      5  C   LIG d   1      11.577  17.437  38.373  0.00  0.00     0.161 C 
ATOM      6  C   LIG d   1      11.545  17.465  39.907  0.00  0.00     0.052 C 
ATOM      7  C   LIG d   1      10.166  17.729  40.455  0.00  0.00     0.176 C 
ATOM      8  O   LIG d   1       9.460  16.489  40.367  0.00  0.00    -0.380 OA
ENDROOT
BRANCH   1   9
ATOM      9  C   LIG d   1      10.250  14.521  41.542  0.00  0.00    -0.024 A 
ATOM     10  C   LIG d   1       9.728  15.021  42.741  0.00  0.00     0.049 A 
ATOM     11  C   LIG d   1       9.581  14.212  43.873  0.00  0.00     0.104 A 
ATOM     12  C   LIG d   1      10.036  12.879  43.834  0.00  0.00     0.135 A 
ATOM     13  C   LIG d   1      10.597  12.379  42.636  0.00  0.00     0.104 A 
ATOM     14  C   LIG d   1      10.671  13.189  41.497  0.00  0.00     0.049 A 
BRANCH  11  15
ATOM     15  O   LIG d   1       9.037  14.704  45.029  0.00  0.00    -0.353 OA
ATOM     16  C   LIG d   1       7.675  15.115  44.988  0.00  0.00     0.210 C 
ENDBRANCH  11  15
BRANCH  12  17
ATOM     17  O   LIG d   1       9.933  11.968  44.860  0.00  0.00    -0.351 OA
ATOM     18  C   LIG d   1       8.662  11.373  45.092  0.00  0.00     0.210 C 
ENDBRANCH  12  17
BRANCH  13  19
ATOM     19  O   LIG d   1      11.042  11.075  42.641  0.00  0.00    -0.353 OA
ATOM     20  C   LIG d   1      11.781  10.671  41.490  0.00  0.00     0.210 C 
ENDBRANCH  13  19
ENDBRANCH   1   9
BRANCH   5  21
ATOM     21  C   LIG d   1      12.318  18.608  37.748  0.00  0.00    -0.026 A 
ATOM     22  C   LIG d   1      11.854  19.242  36.575  0.00  0.00     0.049 A 
ATOM     23  C   LIG d   1      12.529  20.345  36.022  0.00  0.00     0.102 A 
ATOM     24  C   LIG d   1      13.713  20.786  36.618  0.00  0.00     0.101 A 
ATOM     25  C   LIG d   1      14.202  20.141  37.761  0.00  0.00     0.040 A 
ATOM     26  C   LIG d   1      13.509  19.058  38.310  0.00  0.00     0.012 A 
BRANCH  23  27
ATOM     27  O   LIG d   1      11.897  20.864  34.916  0.00  0.00    -0.353 OA
ATOM     28  C   LIG d   1      10.714  21.622  35.135  0.00  0.00     0.210 C 
ENDBRANCH  23  27
BRANCH  24  29
ATOM     29  O   LIG d   1      14.345  21.912  36.153  0.00  0.00    -0.353 OA
ATOM     30  C   LIG d   1      15.513  22.283  36.875  0.00  0.00     0.210 C 
ENDBRANCH  24  29
ENDBRANCH   5  21
TORSDOF 7
ENDMDL
MODEL 7
REMARK VINA RESULT:      -5.0      1.000      9.630
REMARK  7 active torsions:
REMARK  status: ('A' for Active; 'I' for Inactive)
REMARK    1  A    between atoms: O_2  and  C_3 
REMARK    2  A    between atoms: C_4  and  O_5 
REMARK    3  A    between atoms: C_8  and  C_9 
REMARK    4  A    between atoms: C_13  and  C_17 
REMARK    5  A    between atoms: C_19  and  O_20 
REMARK    6  A    between atoms: C_22  and  O_25 
REMARK    7  A    between atoms: C_28  and  O_29 
ROOT
ATOM      1  C   LIG d   1      10.690  16.016  39.689  0.00  0.00     0.161 C 
ATOM      2  C   LIG d   1      11.956  16.876  39.735  0.00  0.00     0.052 C 
ATOM      3  C   LIG d   1      13.131  16.267  39.014  0.00  0.00     0.176 C 
ATOM      4  O   LIG d   1      12.872  16.456  37.621  0.00  0.00    -0.380 OA
ATOM      5  C   LIG d   1      12.014  17.611  37.457  0.00  0.00     0.161 C 
ATOM      6  C   LIG d   1      11.608  18.053  38.869  0.00  0.00     0.052 C 
ATOM      7  C   LIG d   1      10.116  18.183  39.031  0.00  0.00     0.176 C 
ATOM      8  O   LIG d   1       9.618  16.852  39.201  0.00  0.00    -0.380 OA
ENDROOT
BRANCH   1   9
ATOM      9  C   LIG d   1      10.348  15.479  41.061  0.00  0.00    -0.024 A 
ATOM     10  C   LIG d   1      10.712  14.183  41.444  0.00  0.00     0.049 A 
ATOM     11  C   LIG d   1      10.387  13.670  42.704  0.00  0.00     0.104 A 
ATOM     12  C   LIG d   1       9.612  14.446  43.588  0.00  0.00     0.135 A 
ATOM     13  C   LIG d   1       9.212  15.744  43.193  0.00  0.00     0.104 A 
ATOM     14  C   LIG d   1       9.606  16.260  41.952  0.00  0.00     0.049 A 
BRANCH  11  15
ATOM     15  O   LIG d   1      10.779  12.413  43.078  0.00  0.00    -0.353 OA
ATOM     16  C   LIG d   1      11.333  11.573  42.072  0.00  0.00     0.210 C 
ENDBRANCH  11  15
BRANCH  12  17
ATOM     17  O   LIG d   1       9.242  14.080  44.862  0.00  0.00    -0.351 OA
ATOM     18  C   LIG d   1       8.137  13.197  45.002  0.00  0.00     0.210 C 
ENDBRANCH  12  17
BRANCH  13  19
ATOM     19  O   LIG d   1       8.443  16.467  44.079  0.00  0.00    -0.353 OA
ATOM     20  C   LIG d   1       7.115  16.757  43.649  0.00  0.00     0.210 C 
ENDBRANCH  13  19
ENDBRANCH   1   9
BRANCH   5  21
ATOM     21  C   LIG d   1      12.726  18.686  36.651  0.00  0.00    -0.026 A 
ATOM     22  C   LIG d   1      13.054  19.940  37.209  0.00  0.00     0.049 A 
ATOM     23  C   LIG d   1      13.742  20.917  36.465  0.00  0.00     0.102 A 
ATOM     24  C   LIG d   1      14.058  20.655  35.130  0.00  0.00     0.101 A 
ATOM     25  C   LIG d   1      13.706  19.426  34.556  0.00  0.00     0.040 A 
ATOM     26  C   LIG d   1      13.041  18.459  35.315  0.00  0.00     0.012 A 
BRANCH  23  27
ATOM     27  O   LIG d   1      14.022  22.049  37.193  0.00  0.00    -0.353 OA
ATOM     28  C   LIG d   1      15.294  22.122  37.825  0.00  0.00     0.210 C 
ENDBRANCH  23  27
BRANCH  24  29
ATOM     29  O   LIG d   1      14.805  21.551  34.407  0.00  0.00    -0.353 OA
ATOM     30  C   LIG d   1      16.180  21.212  34.271  0.00  0.00     0.210 C 
ENDBRANCH  24  29
ENDBRANCH   5  21
TORSDOF 7
ENDMDL
MODEL 8
REMARK VINA RESULT:      -4.9      1.627      2.326
REMARK  7 active torsions:
REMARK  status: ('A' for Active; 'I' for Inactive)
REMARK    1  A    between atoms: O_2  and  C_3 
REMARK    2  A    between atoms: C_4  and  O_5 
REMARK    3  A    between atoms: C_8  and  C_9 
REMARK    4  A    between atoms: C_13  and  C_17 
REMARK    5  A    between atoms: C_19  and  O_20 
REMARK    6  A    between atoms: C_22  and  O_25 
REMARK    7  A    between atoms: C_28  and  O_29 
ROOT
ATOM      1  C   LIG d   1      11.495  17.486  37.994  0.00  0.00     0.161 C 
ATOM      2  C   LIG d   1      11.356  17.725  39.501  0.00  0.00     0.052 C 
ATOM      3  C   LIG d   1       9.928  17.792  39.977  0.00  0.00     0.176 C 
ATOM      4  O   LIG d   1       9.461  16.441  39.996  0.00  0.00    -0.380 OA
ATOM      5  C   LIG d   1      10.595  15.557  40.174  0.00  0.00     0.161 C 
ATOM      6  C   LIG d   1      11.848  16.440  40.103  0.00  0.00     0.052 C 
ATOM      7  C   LIG d   1      12.855  15.941  39.099  0.00  0.00     0.176 C 
ATOM      8  O   LIG d   1      12.374  16.355  37.817  0.00  0.00    -0.380 OA
ENDROOT
BRANCH   1   9
ATOM      9  C   LIG d   1      12.066  18.703  37.302  0.00  0.00    -0.024 A 
ATOM     10  C   LIG d   1      13.386  19.112  37.526  0.00  0.00     0.049 A 
ATOM     11  C   LIG d   1      13.919  20.246  36.904  0.00  0.00     0.104 A 
ATOM     12  C   LIG d   1      13.092  21.042  36.088  0.00  0.00     0.135 A 
ATOM     13  C   LIG d   1      11.747  20.653  35.886  0.00  0.00     0.104 A 
ATOM     14  C   LIG d   1      11.255  19.477  36.467  0.00  0.00     0.049 A 
BRANCH  11  15
ATOM     15  O   LIG d   1      15.222  20.615  37.104  0.00  0.00    -0.353 OA
ATOM     16  C   LIG d   1      15.479  21.601  38.098  0.00  0.00     0.210 C 
ENDBRANCH  11  15
BRANCH  12  17
ATOM     17  O   LIG d   1      13.488  22.164  35.397  0.00  0.00    -0.351 OA
ATOM     18  C   LIG d   1      14.102  21.978  34.128  0.00  0.00     0.210 C 
ENDBRANCH  12  17
BRANCH  13  19
ATOM     19  O   LIG d   1      10.965  21.464  35.093  0.00  0.00    -0.353 OA
ATOM     20  C   LIG d   1      10.255  20.804  34.048  0.00  0.00     0.210 C 
ENDBRANCH  13  19
ENDBRANCH   1   9
BRANCH   5  21
ATOM     21  C   LIG d   1      10.457  14.779  41.472  0.00  0.00    -0.026 A 
ATOM     22  C   LIG d   1      10.739  13.398  41.546  0.00  0.00     0.049 A 
ATOM     23  C   LIG d   1      10.640  12.693  42.760  0.00  0.00     0.102 A 
ATOM     24  C   LIG d   1      10.201  13.366  43.902  0.00  0.00     0.101 A 
ATOM     25  C   LIG d   1       9.884  14.729  43.832  0.00  0.00     0.040 A 
ATOM     26  C   LIG d   1      10.007  15.420  42.623  0.00  0.00     0.012 A 
BRANCH  23  27
ATOM     27  O   LIG d   1      11.008  11.373  42.648  0.00  0.00    -0.353 OA
ATOM     28  C   LIG d   1      11.168  10.848  41.335  0.00  0.00     0.210 C 
ENDBRANCH  23  27
BRANCH  24  29
ATOM     29  O   LIG d   1      10.178  12.728  45.116  0.00  0.00    -0.353 OA
ATOM     30  C   LIG d   1       8.975  12.023  45.400  0.00  0.00     0.210 C 
ENDBRANCH  24  29
ENDBRANCH   5  21
TORSDOF 7
ENDMDL
MODEL 9
REMARK VINA RESULT:      -4.9      1.370      2.335
REMARK  7 active torsions:
REMARK  status: ('A' for Active; 'I' for Inactive)
REMARK    1  A    between atoms: O_2  and  C_3 
REMARK    2  A    between atoms: C_4  and  O_5 
REMARK    3  A    between atoms: C_8  and  C_9 
REMARK    4  A    between atoms: C_13  and  C_17 
REMARK    5  A    between atoms: C_19  and  O_20 
REMARK    6  A    between atoms: C_22  and  O_25 
REMARK    7  A    between atoms: C_28  and  O_29 
ROOT
ATOM      1  C   LIG d   1      12.353  18.167  36.956  0.00  0.00     0.161 C 
ATOM      2  C   LIG d   1      11.717  18.917  38.130  0.00  0.00     0.052 C 
ATOM      3  C   LIG d   1      10.220  19.051  38.026  0.00  0.00     0.176 C 
ATOM      4  O   LIG d   1       9.690  17.767  38.364  0.00  0.00    -0.380 OA
ATOM      5  C   LIG d   1      10.633  17.084  39.226  0.00  0.00     0.161 C 
ATOM      6  C   LIG d   1      11.887  17.967  39.281  0.00  0.00     0.052 C 
ATOM      7  C   LIG d   1      13.145  17.213  38.936  0.00  0.00     0.176 C 
ATOM      8  O   LIG d   1      13.166  17.109  37.509  0.00  0.00    -0.380 OA
ENDROOT
BRANCH   1   9
ATOM      9  C   LIG d   1      13.204  19.093  36.117  0.00  0.00    -0.024 A 
ATOM     10  C   LIG d   1      13.751  20.263  36.657  0.00  0.00     0.049 A 
ATOM     11  C   LIG d   1      14.527  21.136  35.887  0.00  0.00     0.104 A 
ATOM     12  C   LIG d   1      14.705  20.875  34.514  0.00  0.00     0.135 A 
ATOM     13  C   LIG d   1      14.124  19.713  33.954  0.00  0.00     0.104 A 
ATOM     14  C   LIG d   1      13.409  18.820  34.761  0.00  0.00     0.049 A 
BRANCH  11  15
ATOM     15  O   LIG d   1      15.085  22.258  36.437  0.00  0.00    -0.353 OA
ATOM     16  C   LIG d   1      15.839  22.096  37.633  0.00  0.00     0.210 C 
ENDBRANCH  11  15
BRANCH  12  17
ATOM     17  O   LIG d   1      15.459  21.631  33.647  0.00  0.00    -0.351 OA
ATOM     18  C   LIG d   1      16.872  21.475  33.691  0.00  0.00     0.210 C 
ENDBRANCH  12  17
BRANCH  13  19
ATOM     19  O   LIG d   1      14.309  19.499  32.606  0.00  0.00    -0.353 OA
ATOM     20  C   LIG d   1      13.250  18.815  31.939  0.00  0.00     0.210 C 
ENDBRANCH  13  19
ENDBRANCH   1   9
BRANCH   5  21
ATOM     21  C   LIG d   1      10.006  16.812  40.583  0.00  0.00    -0.026 A 
ATOM     22  C   LIG d   1      10.541  15.857  41.474  0.00  0.00     0.049 A 
ATOM     23  C   LIG d   1       9.972  15.636  42.741  0.00  0.00     0.102 A 
ATOM     24  C   LIG d   1       8.820  16.339  43.101  0.00  0.00     0.101 A 
ATOM     25  C   LIG d   1       8.260  17.264  42.210  0.00  0.00     0.040 A 
ATOM     26  C   LIG d   1       8.849  17.487  40.962  0.00  0.00     0.012 A 
BRANCH  23  27
ATOM     27  O   LIG d   1      10.664  14.711  43.488  0.00  0.00    -0.353 OA
ATOM     28  C   LIG d   1      11.966  14.351  43.041  0.00  0.00     0.210 C 
ENDBRANCH  23  27
BRANCH  24  29
ATOM     29  O   LIG d   1       8.295  16.209  44.361  0.00  0.00    -0.353 OA
ATOM     30  C   LIG d   1       6.965  16.693  44.508  0.00  0.00     0.210 C 
ENDBRANCH  24  29
ENDBRANCH   5  21
TORSDOF 7
ENDMDL
MODEL 10
REMARK VINA RESULT:      -4.9      1.099      2.865
REMARK  7 active torsions:
REMARK  status: ('A' for Active; 'I' for Inactive)
REMARK    1  A    between atoms: O_2  and  C_3 
REMARK    2  A    between atoms: C_4  and  O_5 
REMARK    3  A    between atoms: C_8  and  C_9 
REMARK    4  A    between atoms: C_13  and  C_17 
REMARK    5  A    between atoms: C_19  and  O_20 
REMARK    6  A    between atoms: C_22  and  O_25 
REMARK    7  A    between atoms: C_28  and  O_29 
ROOT
ATOM      1  C   LIG d   1      11.931  17.576  37.413  0.00  0.00     0.161 C 
ATOM      2  C   LIG d   1      11.372  18.195  38.698  0.00  0.00     0.052 C 
ATOM      3  C   LIG d   1       9.867  18.245  38.744  0.00  0.00     0.176 C 
ATOM      4  O   LIG d   1       9.442  16.910  39.026  0.00  0.00    -0.380 OA
ATOM      5  C   LIG d   1      10.500  16.223  39.738  0.00  0.00     0.161 C 
ATOM      6  C   LIG d   1      11.704  17.175  39.749  0.00  0.00     0.052 C 
ATOM      7  C   LIG d   1      12.961  16.527  39.228  0.00  0.00     0.176 C 
ATOM      8  O   LIG d   1      12.849  16.532  37.802  0.00  0.00    -0.380 OA
ENDROOT
BRANCH   1   9
ATOM      9  C   LIG d   1      12.645  18.613  36.577  0.00  0.00    -0.024 A 
ATOM     10  C   LIG d   1      13.040  18.339  35.263  0.00  0.00     0.049 A 
ATOM     11  C   LIG d   1      13.717  19.285  34.485  0.00  0.00     0.104 A 
ATOM     12  C   LIG d   1      14.076  20.521  35.058  0.00  0.00     0.135 A 
ATOM     13  C   LIG d   1      13.711  20.791  36.397  0.00  0.00     0.104 A 
ATOM     14  C   LIG d   1      12.975  19.853  37.133  0.00  0.00     0.049 A 
BRANCH  11  15
ATOM     15  O   LIG d   1      14.067  19.016  33.190  0.00  0.00    -0.353 OA
ATOM     16  C   LIG d   1      13.081  19.235  32.186  0.00  0.00     0.210 C 
ENDBRANCH  11  15
BRANCH  12  17
ATOM     17  O   LIG d   1      14.717  21.549  34.406  0.00  0.00    -0.351 OA
ATOM     18  C   LIG d   1      16.131  21.468  34.270  0.00  0.00     0.210 C 
ENDBRANCH  12  17
BRANCH  13  19
ATOM     19  O   LIG d   1      14.092  22.005  36.926  0.00  0.00    -0.353 OA
ATOM     20  C   LIG d   1      15.123  21.952  37.909  0.00  0.00     0.210 C 
ENDBRANCH  13  19
ENDBRANCH   1   9
BRANCH   5  21
ATOM     21  C   LIG d   1      10.023  15.812  41.121  0.00  0.00    -0.026 A 
ATOM     22  C   LIG d   1      10.071  14.471  41.558  0.00  0.00     0.049 A 
ATOM     23  C   LIG d   1       9.657  14.105  42.852  0.00  0.00     0.102 A 
ATOM     24  C   LIG d   1       9.137  15.085  43.701  0.00  0.00     0.101 A 
ATOM     25  C   LIG d   1       9.051  16.413  43.265  0.00  0.00     0.040 A 
ATOM     26  C   LIG d   1       9.486  16.764  41.983  0.00  0.00     0.012 A 
BRANCH  23  27
ATOM     27  O   LIG d   1       9.831  12.766  43.115  0.00  0.00    -0.353 OA
ATOM     28  C   LIG d   1      10.755  12.055  42.300  0.00  0.00     0.210 C 
ENDBRANCH  23  27
BRANCH  24  29
ATOM     29  O   LIG d   1       8.807  14.775  44.996  0.00  0.00    -0.353 OA
ATOM     30  C   LIG d   1       7.715  15.514  45.529  0.00  0.00     0.210 C 
ENDBRANCH  24  29
ENDBRANCH   5  21
TORSDOF 7
ENDMDL
MODEL 11
REMARK VINA RESULT:      -4.9     16.035     17.995
REMARK  7 active torsions:
REMARK  status: ('A' for Active; 'I' for Inactive)
REMARK    1  A    between atoms: O_2  and  C_3 
REMARK    2  A    between atoms: C_4  and  O_5 
REMARK    3  A    between atoms: C_8  and  C_9 
REMARK    4  A    between atoms: C_13  and  C_17 
REMARK    5  A    between atoms: C_19  and  O_20 
REMARK    6  A    between atoms: C_22  and  O_25 
REMARK    7  A    between atoms: C_28  and  O_29 
ROOT
ATOM      1  C   LIG d   1      23.202  16.441  50.002  0.00  0.00     0.161 C 
ATOM      2  C   LIG d   1      23.943  17.672  50.535  0.00  0.00     0.052 C 
ATOM      3  C   LIG d   1      23.596  18.949  49.814  0.00  0.00     0.176 C 
ATOM      4  O   LIG d   1      22.306  19.330  50.298  0.00  0.00    -0.380 OA
ATOM      5  C   LIG d   1      22.124  18.783  51.627  0.00  0.00     0.161 C 
ATOM      6  C   LIG d   1      23.337  17.881  51.893  0.00  0.00     0.052 C 
ATOM      7  C   LIG d   1      22.944  16.491  52.324  0.00  0.00     0.176 C 
ATOM      8  O   LIG d   1      22.570  15.797  51.130  0.00  0.00    -0.380 OA
ENDROOT
BRANCH   1   9
ATOM      9  C   LIG d   1      24.156  15.485  49.324  0.00  0.00    -0.024 A 
ATOM     10  C   LIG d   1      24.656  14.362  49.993  0.00  0.00     0.049 A 
ATOM     11  C   LIG d   1      25.553  13.480  49.381  0.00  0.00     0.104 A 
ATOM     12  C   LIG d   1      26.024  13.762  48.084  0.00  0.00     0.135 A 
ATOM     13  C   LIG d   1      25.550  14.914  47.415  0.00  0.00     0.104 A 
ATOM     14  C   LIG d   1      24.602  15.746  48.024  0.00  0.00     0.049 A 
BRANCH  11  15
ATOM     15  O   LIG d   1      26.006  12.366  50.035  0.00  0.00    -0.353 OA
ATOM     16  C   LIG d   1      25.373  12.024  51.263  0.00  0.00     0.210 C 
ENDBRANCH  11  15
BRANCH  12  17
ATOM     17  O   LIG d   1      26.883  12.972  47.355  0.00  0.00    -0.351 OA
ATOM     18  C   LIG d   1      28.277  13.108  47.602  0.00  0.00     0.210 C 
ENDBRANCH  12  17
BRANCH  13  19
ATOM     19  O   LIG d   1      26.045  15.164  46.154  0.00  0.00    -0.353 OA
ATOM     20  C   LIG d   1      26.699  16.420  45.986  0.00  0.00     0.210 C 
ENDBRANCH  13  19
ENDBRANCH   1   9
BRANCH   5  21
ATOM     21  C   LIG d   1      21.951  19.904  52.639  0.00  0.00    -0.026 A 
ATOM     22  C   LIG d   1      23.049  20.642  53.128  0.00  0.00     0.049 A 
ATOM     23  C   LIG d   1      22.875  21.699  54.040  0.00  0.00     0.102 A 
ATOM     24  C   LIG d   1      21.591  21.986  54.510  0.00  0.00     0.101 A 
ATOM     25  C   LIG d   1      20.498  21.235  54.058  0.00  0.00     0.040 A 
ATOM     26  C   LIG d   1      20.686  20.201  53.137  0.00  0.00     0.012 A 
BRANCH  23  27
ATOM     27  O   LIG d   1      24.051  22.337  54.357  0.00  0.00    -0.353 OA
ATOM     28  C   LIG d   1      24.824  21.792  55.421  0.00  0.00     0.210 C 
ENDBRANCH  23  27
BRANCH  24  29
ATOM     29  O   LIG d   1      21.379  23.065  55.331  0.00  0.00    -0.353 OA
ATOM     30  C   LIG d   1      21.349  22.763  56.721  0.00  0.00     0.210 C 
ENDBRANCH  24  29
ENDBRANCH   5  21
TORSDOF 7
ENDMDL
MODEL 12
REMARK VINA RESULT:      -4.8     15.471     18.425
REMARK  7 active torsions:
REMARK  status: ('A' for Active; 'I' for Inactive)
REMARK    1  A    between atoms: O_2  and  C_3 
REMARK    2  A    between atoms: C_4  and  O_5 
REMARK    3  A    between atoms: C_8  and  C_9 
REMARK    4  A    between atoms: C_13  and  C_17 
REMARK    5  A    between atoms: C_19  and  O_20 
REMARK    6  A    between atoms: C_22  and  O_25 
REMARK    7  A    between atoms: C_28  and  O_29 
ROOT
ATOM      1  C   LIG d   1      23.380  17.331  51.825  0.00  0.00     0.161 C 
ATOM      2  C   LIG d   1      24.105  17.949  50.626  0.00  0.00     0.052 C 
ATOM      3  C   LIG d   1      25.607  17.888  50.725  0.00  0.00     0.176 C 
ATOM      4  O   LIG d   1      25.961  16.534  50.431  0.00  0.00    -0.380 OA
ATOM      5  C   LIG d   1      24.931  15.953  49.593  0.00  0.00     0.161 C 
ATOM      6  C   LIG d   1      23.806  16.993  49.507  0.00  0.00     0.052 C 
ATOM      7  C   LIG d   1      22.460  16.424  49.878  0.00  0.00     0.176 C 
ATOM      8  O   LIG d   1      22.432  16.373  51.307  0.00  0.00    -0.380 OA
ENDROOT
BRANCH   1   9
ATOM      9  C   LIG d   1      22.663  18.390  52.631  0.00  0.00    -0.024 A 
ATOM     10  C   LIG d   1      21.959  18.062  53.795  0.00  0.00     0.049 A 
ATOM     11  C   LIG d   1      21.277  19.031  54.539  0.00  0.00     0.104 A 
ATOM     12  C   LIG d   1      21.235  20.359  54.072  0.00  0.00     0.135 A 
ATOM     13  C   LIG d   1      21.916  20.690  52.877  0.00  0.00     0.104 A 
ATOM     14  C   LIG d   1      22.646  19.715  52.186  0.00  0.00     0.049 A 
BRANCH  11  15
ATOM     15  O   LIG d   1      20.621  18.703  55.695  0.00  0.00    -0.353 OA
ATOM     16  C   LIG d   1      21.211  17.705  56.522  0.00  0.00     0.210 C 
ENDBRANCH  11  15
BRANCH  12  17
ATOM     17  O   LIG d   1      20.627  21.415  54.712  0.00  0.00    -0.351 OA
ATOM     18  C   LIG d   1      21.329  22.032  55.785  0.00  0.00     0.210 C 
ENDBRANCH  12  17
BRANCH  13  19
ATOM     19  O   LIG d   1      21.840  21.996  52.445  0.00  0.00    -0.353 OA
ATOM     20  C   LIG d   1      22.891  22.421  51.581  0.00  0.00     0.210 C 
ENDBRANCH  13  19
ENDBRANCH   1   9
BRANCH   5  21
ATOM     21  C   LIG d   1      25.512  15.555  48.246  0.00  0.00    -0.026 A 
ATOM     22  C   LIG d   1      25.781  14.208  47.920  0.00  0.00     0.049 A 
ATOM     23  C   LIG d   1      26.288  13.846  46.659  0.00  0.00     0.102 A 
ATOM     24  C   LIG d   1      26.580  14.848  45.731  0.00  0.00     0.101 A 
ATOM     25  C   LIG d   1      26.350  16.191  46.057  0.00  0.00     0.040 A 
ATOM     26  C   LIG d   1      25.827  16.533  47.308  0.00  0.00     0.012 A 
BRANCH  23  27
ATOM     27  O   LIG d   1      26.431  12.487  46.506  0.00  0.00    -0.353 OA
ATOM     28  C   LIG d   1      27.047  11.771  47.570  0.00  0.00     0.210 C 
ENDBRANCH  23  27
BRANCH  24  29
ATOM     29  O   LIG d   1      26.992  14.520  44.464  0.00  0.00    -0.353 OA
ATOM     30  C   LIG d   1      26.617  15.449  43.454  0.00  0.00     0.210 C 
ENDBRANCH  24  29
ENDBRANCH   5  21
TORSDOF 7
ENDMDL
MODEL 13
REMARK VINA RESULT:      -4.8      2.300      3.801
REMARK  7 active torsions:
REMARK  status: ('A' for Active; 'I' for Inactive)
REMARK    1  A    between atoms: O_2  and  C_3 
REMARK    2  A    between atoms: C_4  and  O_5 
REMARK    3  A    between atoms: C_8  and  C_9 
REMARK    4  A    between atoms: C_13  and  C_17 
REMARK    5  A    between atoms: C_19  and  O_20 
REMARK    6  A    between atoms: C_22  and  O_25 
REMARK    7  A    between atoms: C_28  and  O_29 
ROOT
ATOM      1  C   LIG d   1      11.554  17.097  40.380  0.00  0.00     0.161 C 
ATOM      2  C   LIG d   1      11.070  15.658  40.178  0.00  0.00     0.052 C 
ATOM      3  C   LIG d   1      12.137  14.620  40.410  0.00  0.00     0.176 C 
ATOM      4  O   LIG d   1      12.288  14.528  41.828  0.00  0.00    -0.380 OA
ATOM      5  C   LIG d   1      11.047  14.928  42.458  0.00  0.00     0.161 C 
ATOM      6  C   LIG d   1      10.136  15.440  41.335  0.00  0.00     0.052 C 
ATOM      7  C   LIG d   1       9.589  16.817  41.612  0.00  0.00     0.176 C 
ATOM      8  O   LIG d   1      10.644  17.732  41.304  0.00  0.00    -0.380 OA
ENDROOT
BRANCH   1   9
ATOM      9  C   LIG d   1      11.576  17.851  39.070  0.00  0.00    -0.024 A 
ATOM     10  C   LIG d   1      12.758  18.420  38.581  0.00  0.00     0.049 A 
ATOM     11  C   LIG d   1      12.787  19.134  37.378  0.00  0.00     0.104 A 
ATOM     12  C   LIG d   1      11.587  19.351  36.673  0.00  0.00     0.135 A 
ATOM     13  C   LIG d   1      10.383  18.809  37.181  0.00  0.00     0.104 A 
ATOM     14  C   LIG d   1      10.392  18.041  38.352  0.00  0.00     0.049 A 
BRANCH  11  15
ATOM     15  O   LIG d   1      13.956  19.655  36.893  0.00  0.00    -0.353 OA
ATOM     16  C   LIG d   1      14.645  20.593  37.714  0.00  0.00     0.210 C 
ENDBRANCH  11  15
BRANCH  12  17
ATOM     17  O   LIG d   1      11.472  20.010  35.470  0.00  0.00    -0.351 OA
ATOM     18  C   LIG d   1      11.590  21.427  35.478  0.00  0.00     0.210 C 
ENDBRANCH  12  17
BRANCH  13  19
ATOM     19  O   LIG d   1       9.228  19.054  36.471  0.00  0.00    -0.353 OA
ATOM     20  C   LIG d   1       8.348  20.020  37.041  0.00  0.00     0.210 C 
ENDBRANCH  13  19
ENDBRANCH   1   9
BRANCH   5  21
ATOM     21  C   LIG d   1      10.462  13.770  43.251  0.00  0.00    -0.026 A 
ATOM     22  C   LIG d   1      10.461  12.451  42.750  0.00  0.00     0.049 A 
ATOM     23  C   LIG d   1       9.946  11.380  43.505  0.00  0.00     0.102 A 
ATOM     24  C   LIG d   1       9.377  11.641  44.754  0.00  0.00     0.101 A 
ATOM     25  C   LIG d   1       9.342  12.953  45.245  0.00  0.00     0.040 A 
ATOM     26  C   LIG d   1       9.875  14.002  44.491  0.00  0.00     0.012 A 
BRANCH  23  27
ATOM     27  O   LIG d   1      10.083  10.164  42.877  0.00  0.00    -0.353 OA
ATOM     28  C   LIG d   1      11.401   9.652  42.723  0.00  0.00     0.210 C 
ENDBRANCH  23  27
BRANCH  24  29
ATOM     29  O   LIG d   1       8.948  10.609  45.549  0.00  0.00    -0.353 OA
ATOM     30  C   LIG d   1       9.942  10.061  46.407  0.00  0.00     0.210 C 
ENDBRANCH  24  29
ENDBRANCH   5  21
TORSDOF 7
ENDMDL
MODEL 14
REMARK VINA RESULT:      -4.8     15.689     17.578
REMARK  7 active torsions:
REMARK  status: ('A' for Active; 'I' for Inactive)
REMARK    1  A    between atoms: O_2  and  C_3 
REMARK    2  A    between atoms: C_4  and  O_5 
REMARK    3  A    between atoms: C_8  and  C_9 
REMARK    4  A    between atoms: C_13  and  C_17 
REMARK    5  A    between atoms: C_19  and  O_20 
REMARK    6  A    between atoms: C_22  and  O_25 
REMARK    7  A    between atoms: C_28  and  O_29 
ROOT
ATOM      1  C   LIG d   1      23.620  17.262  49.524  0.00  0.00     0.161 C 
ATOM      2  C   LIG d   1      24.081  17.637  50.936  0.00  0.00     0.052 C 
ATOM      3  C   LIG d   1      24.445  19.091  51.091  0.00  0.00     0.176 C 
ATOM      4  O   LIG d   1      23.204  19.798  51.146  0.00  0.00    -0.380 OA
ATOM      5  C   LIG d   1      22.179  18.906  51.646  0.00  0.00     0.161 C 
ATOM      6  C   LIG d   1      22.827  17.519  51.753  0.00  0.00     0.052 C 
ATOM      7  C   LIG d   1      22.038  16.452  51.039  0.00  0.00     0.176 C 
ATOM      8  O   LIG d   1      22.347  16.594  49.649  0.00  0.00    -0.380 OA
ENDROOT
BRANCH   1   9
ATOM      9  C   LIG d   1      24.622  16.352  48.850  0.00  0.00    -0.024 A 
ATOM     10  C   LIG d   1      24.808  15.033  49.280  0.00  0.00     0.049 A 
ATOM     11  C   LIG d   1      25.744  14.187  48.675  0.00  0.00     0.104 A 
ATOM     12  C   LIG d   1      26.574  14.691  47.655  0.00  0.00     0.135 A 
ATOM     13  C   LIG d   1      26.415  16.034  47.240  0.00  0.00     0.104 A 
ATOM     14  C   LIG d   1      25.426  16.841  47.815  0.00  0.00     0.049 A 
BRANCH  11  15
ATOM     15  O   LIG d   1      25.890  12.889  49.083  0.00  0.00    -0.353 OA
ATOM     16  C   LIG d   1      25.692  12.609  50.464  0.00  0.00     0.210 C 
ENDBRANCH  11  15
BRANCH  12  17
ATOM     17  O   LIG d   1      27.515  13.969  46.958  0.00  0.00    -0.351 OA
ATOM     18  C   LIG d   1      28.783  13.770  47.569  0.00  0.00     0.210 C 
ENDBRANCH  12  17
BRANCH  13  19
ATOM     19  O   LIG d   1      27.255  16.494  46.249  0.00  0.00    -0.353 OA
ATOM     20  C   LIG d   1      26.644  16.725  44.981  0.00  0.00     0.210 C 
ENDBRANCH  13  19
ENDBRANCH   1   9
BRANCH   5  21
ATOM     21  C   LIG d   1      21.617  19.431  52.957  0.00  0.00    -0.026 A 
ATOM     22  C   LIG d   1      21.526  18.618  54.107  0.00  0.00     0.049 A 
ATOM     23  C   LIG d   1      21.034  19.123  55.325  0.00  0.00     0.102 A 
ATOM     24  C   LIG d   1      20.578  20.442  55.379  0.00  0.00     0.101 A 
ATOM     25  C   LIG d   1      20.631  21.247  54.233  0.00  0.00     0.040 A 
ATOM     26  C   LIG d   1      21.141  20.736  53.036  0.00  0.00     0.012 A 
BRANCH  23  27
ATOM     27  O   LIG d   1      21.074  18.202  56.345  0.00  0.00    -0.353 OA
ATOM     28  C   LIG d   1      21.673  16.942  56.065  0.00  0.00     0.210 C 
ENDBRANCH  23  27
BRANCH  24  29
ATOM     29  O   LIG d   1      20.176  20.988  56.571  0.00  0.00    -0.353 OA
ATOM     30  C   LIG d   1      21.038  21.993  57.090  0.00  0.00     0.210 C 
ENDBRANCH  24  29
ENDBRANCH   5  21
TORSDOF 7
ENDMDL
MODEL 15
REMARK VINA RESULT:      -4.8     17.528     20.034
REMARK  7 active torsions:
REMARK  status: ('A' for Active; 'I' for Inactive)
REMARK    1  A    between atoms: O_2  and  C_3 
REMARK    2  A    between atoms: C_4  and  O_5 
REMARK    3  A    between atoms: C_8  and  C_9 
REMARK    4  A    between atoms: C_13  and  C_17 
REMARK    5  A    between atoms: C_19  and  O_20 
REMARK    6  A    between atoms: C_22  and  O_25 
REMARK    7  A    between atoms: C_28  and  O_29 
ROOT
ATOM      1  C   LIG d   1      22.703  20.035  54.375  0.00  0.00     0.161 C 
ATOM      2  C   LIG d   1      22.048  21.336  53.903  0.00  0.00     0.052 C 
ATOM      3  C   LIG d   1      20.766  21.668  54.622  0.00  0.00     0.176 C 
ATOM      4  O   LIG d   1      21.156  22.155  55.908  0.00  0.00    -0.380 OA
ATOM      5  C   LIG d   1      22.490  22.713  55.811  0.00  0.00     0.161 C 
ATOM      6  C   LIG d   1      22.990  22.398  54.396  0.00  0.00     0.052 C 
ATOM      7  C   LIG d   1      24.331  21.710  54.392  0.00  0.00     0.176 C 
ATOM      8  O   LIG d   1      24.074  20.339  54.710  0.00  0.00    -0.380 OA
ENDROOT
BRANCH   1   9
ATOM      9  C   LIG d   1      22.652  18.979  53.294  0.00  0.00    -0.024 A 
ATOM     10  C   LIG d   1      22.595  19.330  51.940  0.00  0.00     0.049 A 
ATOM     11  C   LIG d   1      22.532  18.362  50.932  0.00  0.00     0.104 A 
ATOM     12  C   LIG d   1      22.450  17.000  51.284  0.00  0.00     0.135 A 
ATOM     13  C   LIG d   1      22.472  16.641  52.652  0.00  0.00     0.104 A 
ATOM     14  C   LIG d   1      22.603  17.625  53.640  0.00  0.00     0.049 A 
BRANCH  11  15
ATOM     15  O   LIG d   1      22.512  18.718  49.610  0.00  0.00    -0.353 OA
ATOM     16  C   LIG d   1      23.259  19.868  49.230  0.00  0.00     0.210 C 
ENDBRANCH  11  15
BRANCH  12  17
ATOM     17  O   LIG d   1      22.408  15.946  50.401  0.00  0.00    -0.351 OA
ATOM     18  C   LIG d   1      23.628  15.546  49.789  0.00  0.00     0.210 C 
ENDBRANCH  12  17
BRANCH  13  19
ATOM     19  O   LIG d   1      22.376  15.301  52.957  0.00  0.00    -0.353 OA
ATOM     20  C   LIG d   1      21.525  14.979  54.055  0.00  0.00     0.210 C 
ENDBRANCH  13  19
ENDBRANCH   1   9
BRANCH   5  21
ATOM     21  C   LIG d   1      22.465  24.196  56.145  0.00  0.00    -0.026 A 
ATOM     22  C   LIG d   1      21.301  24.832  56.626  0.00  0.00     0.049 A 
ATOM     23  C   LIG d   1      21.297  26.198  56.963  0.00  0.00     0.102 A 
ATOM     24  C   LIG d   1      22.457  26.950  56.763  0.00  0.00     0.101 A 
ATOM     25  C   LIG d   1      23.608  26.336  56.252  0.00  0.00     0.040 A 
ATOM     26  C   LIG d   1      23.601  24.973  55.942  0.00  0.00     0.012 A 
BRANCH  23  27
ATOM     27  O   LIG d   1      20.091  26.625  57.467  0.00  0.00    -0.353 OA
ATOM     28  C   LIG d   1      19.121  27.092  56.536  0.00  0.00     0.210 C 
ENDBRANCH  23  27
BRANCH  24  29
ATOM     29  O   LIG d   1      22.510  28.261  57.163  0.00  0.00    -0.353 OA
ATOM     30  C   LIG d   1      22.191  29.209  56.152  0.00  0.00     0.210 C 
ENDBRANCH  24  29
ENDBRANCH   5  21
TORSDOF 7
ENDMDL
MODEL 16
REMARK VINA RESULT:      -4.8     17.497     19.995
REMARK  7 active torsions:
REMARK  status: ('A' for Active; 'I' for Inactive)
REMARK    1  A    between atoms: O_2  and  C_3 
REMARK    2  A    between atoms: C_4  and  O_5 
REMARK    3  A    between atoms: C_8  and  C_9 
REMARK    4  A    between atoms: C_13  and  C_17 
REMARK    5  A    between atoms: C_19  and  O_20 
REMARK    6  A    between atoms: C_22  and  O_25 
REMARK    7  A    between atoms: C_28  and  O_29 
ROOT
ATOM      1  C   LIG d   1      22.493  19.901  54.439  0.00  0.00     0.161 C 
ATOM      2  C   LIG d   1      21.901  21.223  53.941  0.00  0.00     0.052 C 
ATOM      3  C   LIG d   1      20.620  21.613  54.630  0.00  0.00     0.176 C 
ATOM      4  O   LIG d   1      21.003  22.098  55.919  0.00  0.00    -0.380 OA
ATOM      5  C   LIG d   1      22.360  22.600  55.845  0.00  0.00     0.161 C 
ATOM      6  C   LIG d   1      22.875  22.250  54.443  0.00  0.00     0.052 C 
ATOM      7  C   LIG d   1      24.187  21.509  54.474  0.00  0.00     0.176 C 
ATOM      8  O   LIG d   1      23.868  20.153  54.800  0.00  0.00    -0.380 OA
ENDROOT
BRANCH   1   9
ATOM      9  C   LIG d   1      22.422  18.836  53.368  0.00  0.00    -0.024 A 
ATOM     10  C   LIG d   1      22.486  17.476  53.691  0.00  0.00     0.049 A 
ATOM     11  C   LIG d   1      22.438  16.483  52.706  0.00  0.00     0.104 A 
ATOM     12  C   LIG d   1      22.397  16.857  51.349  0.00  0.00     0.135 A 
ATOM     13  C   LIG d   1      22.367  18.231  51.014  0.00  0.00     0.104 A 
ATOM     14  C   LIG d   1      22.349  19.204  52.021  0.00  0.00     0.049 A 
BRANCH  11  15
ATOM     15  O   LIG d   1      22.466  15.156  53.039  0.00  0.00    -0.353 OA
ATOM     16  C   LIG d   1      23.721  14.604  53.423  0.00  0.00     0.210 C 
ENDBRANCH  11  15
BRANCH  12  17
ATOM     17  O   LIG d   1      22.321  15.991  50.282  0.00  0.00    -0.351 OA
ATOM     18  C   LIG d   1      23.541  15.503  49.738  0.00  0.00     0.210 C 
ENDBRANCH  12  17
BRANCH  13  19
ATOM     19  O   LIG d   1      22.342  18.557  49.676  0.00  0.00    -0.353 OA
ATOM     20  C   LIG d   1      23.435  19.346  49.212  0.00  0.00     0.210 C 
ENDBRANCH  13  19
ENDBRANCH   1   9
BRANCH   5  21
ATOM     21  C   LIG d   1      22.388  24.087  56.163  0.00  0.00    -0.026 A 
ATOM     22  C   LIG d   1      21.249  24.768  56.642  0.00  0.00     0.049 A 
ATOM     23  C   LIG d   1      21.295  26.137  56.965  0.00  0.00     0.102 A 
ATOM     24  C   LIG d   1      22.480  26.845  56.753  0.00  0.00     0.101 A 
ATOM     25  C   LIG d   1      23.606  26.186  56.244  0.00  0.00     0.040 A 
ATOM     26  C   LIG d   1      23.551  24.821  55.948  0.00  0.00     0.012 A 
BRANCH  23  27
ATOM     27  O   LIG d   1      20.106  26.611  57.469  0.00  0.00    -0.353 OA
ATOM     28  C   LIG d   1      19.174  27.155  56.543  0.00  0.00     0.210 C 
ENDBRANCH  23  27
BRANCH  24  29
ATOM     29  O   LIG d   1      22.580  28.157  57.140  0.00  0.00    -0.353 OA
ATOM     30  C   LIG d   1      22.407  29.105  56.093  0.00  0.00     0.210 C 
ENDBRANCH  24  29
ENDBRANCH   5  21
TORSDOF 7
ENDMDL
MODEL 17
REMARK VINA RESULT:      -4.8     16.039     18.563
REMARK  7 active torsions:
REMARK  status: ('A' for Active; 'I' for Inactive)
REMARK    1  A    between atoms: O_2  and  C_3 
REMARK    2  A    between atoms: C_4  and  O_5 
REMARK    3  A    between atoms: C_8  and  C_9 
REMARK    4  A    between atoms: C_13  and  C_17 
REMARK    5  A    between atoms: C_19  and  O_20 
REMARK    6  A    between atoms: C_22  and  O_25 
REMARK    7  A    between atoms: C_28  and  O_29 
ROOT
ATOM      1  C   LIG d   1      23.041  19.545  51.121  0.00  0.00     0.161 C 
ATOM      2  C   LIG d   1      23.220  18.085  51.548  0.00  0.00     0.052 C 
ATOM      3  C   LIG d   1      22.189  17.152  50.970  0.00  0.00     0.176 C 
ATOM      4  O   LIG d   1      22.564  16.955  49.605  0.00  0.00    -0.380 OA
ATOM      5  C   LIG d   1      23.992  17.162  49.478  0.00  0.00     0.161 C 
ATOM      6  C   LIG d   1      24.479  17.669  50.842  0.00  0.00     0.052 C 
ATOM      7  C   LIG d   1      25.267  18.949  50.739  0.00  0.00     0.176 C 
ATOM      8  O   LIG d   1      24.305  19.996  50.587  0.00  0.00    -0.380 OA
ENDROOT
BRANCH   1   9
ATOM      9  C   LIG d   1      22.634  20.408  52.294  0.00  0.00    -0.024 A 
ATOM     10  C   LIG d   1      23.483  21.402  52.793  0.00  0.00     0.049 A 
ATOM     11  C   LIG d   1      23.124  22.194  53.888  0.00  0.00     0.104 A 
ATOM     12  C   LIG d   1      21.909  21.943  54.555  0.00  0.00     0.135 A 
ATOM     13  C   LIG d   1      21.062  20.916  54.077  0.00  0.00     0.104 A 
ATOM     14  C   LIG d   1      21.414  20.181  52.938  0.00  0.00     0.049 A 
BRANCH  11  15
ATOM     15  O   LIG d   1      23.950  23.186  54.345  0.00  0.00    -0.353 OA
ATOM     16  C   LIG d   1      25.191  22.793  54.919  0.00  0.00     0.210 C 
ENDBRANCH  11  15
BRANCH  12  17
ATOM     17  O   LIG d   1      21.420  22.657  55.625  0.00  0.00    -0.351 OA
ATOM     18  C   LIG d   1      21.931  22.349  56.916  0.00  0.00     0.210 C 
ENDBRANCH  12  17
BRANCH  13  19
ATOM     19  O   LIG d   1      19.889  20.691  54.764  0.00  0.00    -0.353 OA
ATOM     20  C   LIG d   1      19.872  19.530  55.591  0.00  0.00     0.210 C 
ENDBRANCH  13  19
ENDBRANCH   1   9
BRANCH   5  21
ATOM     21  C   LIG d   1      24.670  15.884  49.012  0.00  0.00    -0.026 A 
ATOM     22  C   LIG d   1      25.065  14.878  49.920  0.00  0.00     0.049 A 
ATOM     23  C   LIG d   1      25.663  13.684  49.476  0.00  0.00     0.102 A 
ATOM     24  C   LIG d   1      25.918  13.518  48.113  0.00  0.00     0.101 A 
ATOM     25  C   LIG d   1      25.563  14.526  47.208  0.00  0.00     0.040 A 
ATOM     26  C   LIG d   1      24.952  15.698  47.662  0.00  0.00     0.012 A 
BRANCH  23  27
ATOM     27  O   LIG d   1      25.925  12.801  50.498  0.00  0.00    -0.353 OA
ATOM     28  C   LIG d   1      24.820  12.351  51.273  0.00  0.00     0.210 C 
ENDBRANCH  23  27
BRANCH  24  29
ATOM     29  O   LIG d   1      26.419  12.330  47.642  0.00  0.00    -0.353 OA
ATOM     30  C   LIG d   1      27.032  12.405  46.361  0.00  0.00     0.210 C 
ENDBRANCH  24  29
ENDBRANCH   5  21
TORSDOF 7
ENDMDL
MODEL 18
REMARK VINA RESULT:      -4.7     17.518     20.342
REMARK  7 active torsions:
REMARK  status: ('A' for Active; 'I' for Inactive)
REMARK    1  A    between atoms: O_2  and  C_3 
REMARK    2  A    between atoms: C_4  and  O_5 
REMARK    3  A    between atoms: C_8  and  C_9 
REMARK    4  A    between atoms: C_13  and  C_17 
REMARK    5  A    between atoms: C_19  and  O_20 
REMARK    6  A    between atoms: C_22  and  O_25 
REMARK    7  A    between atoms: C_28  and  O_29 
ROOT
ATOM      1  C   LIG d   1      22.201  22.621  55.251  0.00  0.00     0.161 C 
ATOM      2  C   LIG d   1      21.266  21.547  54.686  0.00  0.00     0.052 C 
ATOM      3  C   LIG d   1      20.653  21.911  53.359  0.00  0.00     0.176 C 
ATOM      4  O   LIG d   1      21.689  21.731  52.390  0.00  0.00    -0.380 OA
ATOM      5  C   LIG d   1      22.628  20.747  52.887  0.00  0.00     0.161 C 
ATOM      6  C   LIG d   1      22.201  20.427  54.326  0.00  0.00     0.052 C 
ATOM      7  C   LIG d   1      23.329  20.576  55.314  0.00  0.00     0.176 C 
ATOM      8  O   LIG d   1      23.457  21.979  55.562  0.00  0.00    -0.380 OA
ENDROOT
BRANCH   1   9
ATOM      9  C   LIG d   1      21.616  23.250  56.495  0.00  0.00    -0.024 A 
ATOM     10  C   LIG d   1      21.205  22.467  57.579  0.00  0.00     0.049 A 
ATOM     11  C   LIG d   1      20.647  23.037  58.728  0.00  0.00     0.104 A 
ATOM     12  C   LIG d   1      20.424  24.427  58.772  0.00  0.00     0.135 A 
ATOM     13  C   LIG d   1      20.805  25.220  57.665  0.00  0.00     0.104 A 
ATOM     14  C   LIG d   1      21.423  24.634  56.554  0.00  0.00     0.049 A 
BRANCH  11  15
ATOM     15  O   LIG d   1      20.281  22.262  59.796  0.00  0.00    -0.353 OA
ATOM     16  C   LIG d   1      19.744  20.974  59.517  0.00  0.00     0.210 C 
ENDBRANCH  11  15
BRANCH  12  17
ATOM     17  O   LIG d   1      19.909  25.122  59.843  0.00  0.00    -0.351 OA
ATOM     18  C   LIG d   1      18.497  25.123  60.015  0.00  0.00     0.210 C 
ENDBRANCH  12  17
BRANCH  13  19
ATOM     19  O   LIG d   1      20.558  26.574  57.740  0.00  0.00    -0.353 OA
ATOM     20  C   LIG d   1      19.561  27.069  56.848  0.00  0.00     0.210 C 
ENDBRANCH  13  19
ENDBRANCH   1   9
BRANCH   5  21
ATOM     21  C   LIG d   1      22.659  19.537  51.966  0.00  0.00    -0.026 A 
ATOM     22  C   LIG d   1      22.276  18.254  52.410  0.00  0.00     0.049 A 
ATOM     23  C   LIG d   1      22.277  17.146  51.542  0.00  0.00     0.102 A 
ATOM     24  C   LIG d   1      22.719  17.315  50.227  0.00  0.00     0.101 A 
ATOM     25  C   LIG d   1      23.135  18.578  49.787  0.00  0.00     0.040 A 
ATOM     26  C   LIG d   1      23.109  19.672  50.656  0.00  0.00     0.012 A 
BRANCH  23  27
ATOM     27  O   LIG d   1      21.819  15.994  52.137  0.00  0.00    -0.353 OA
ATOM     28  C   LIG d   1      22.791  15.107  52.677  0.00  0.00     0.210 C 
ENDBRANCH  23  27
BRANCH  24  29
ATOM     29  O   LIG d   1      22.648  16.276  49.335  0.00  0.00    -0.353 OA
ATOM     30  C   LIG d   1      23.897  15.871  48.787  0.00  0.00     0.210 C 
ENDBRANCH  24  29
ENDBRANCH   5  21
TORSDOF 7
ENDMDL
MODEL 19
REMARK VINA RESULT:      -4.7      2.287      4.096
REMARK  7 active torsions:
REMARK  status: ('A' for Active; 'I' for Inactive)
REMARK    1  A    between atoms: O_2  and  C_3 
REMARK    2  A    between atoms: C_4  and  O_5 
REMARK    3  A    between atoms: C_8  and  C_9 
REMARK    4  A    between atoms: C_13  and  C_17 
REMARK    5  A    between atoms: C_19  and  O_20 
REMARK    6  A    between atoms: C_22  and  O_25 
REMARK    7  A    between atoms: C_28  and  O_29 
ROOT
ATOM      1  C   LIG d   1      11.599  16.911  40.569  0.00  0.00     0.161 C 
ATOM      2  C   LIG d   1      10.982  15.533  40.311  0.00  0.00     0.052 C 
ATOM      3  C   LIG d   1      11.987  14.410  40.298  0.00  0.00     0.176 C 
ATOM      4  O   LIG d   1      12.319  14.170  41.668  0.00  0.00    -0.380 OA
ATOM      5  C   LIG d   1      11.207  14.585  42.498  0.00  0.00     0.161 C 
ATOM      6  C   LIG d   1      10.197  15.263  41.563  0.00  0.00     0.052 C 
ATOM      7  C   LIG d   1       9.800  16.638  42.034  0.00  0.00     0.176 C 
ATOM      8  O   LIG d   1      10.872  17.509  41.664  0.00  0.00    -0.380 OA
ENDROOT
BRANCH   1   9
ATOM      9  C   LIG d   1      11.505  17.786  39.340  0.00  0.00    -0.024 A 
ATOM     10  C   LIG d   1      10.272  18.054  38.733  0.00  0.00     0.049 A 
ATOM     11  C   LIG d   1      10.174  18.849  37.586  0.00  0.00     0.104 A 
ATOM     12  C   LIG d   1      11.349  19.336  36.981  0.00  0.00     0.135 A 
ATOM     13  C   LIG d   1      12.600  19.040  37.569  0.00  0.00     0.104 A 
ATOM     14  C   LIG d   1      12.667  18.298  38.755  0.00  0.00     0.049 A 
BRANCH  11  15
ATOM     15  O   LIG d   1       8.959  19.131  37.023  0.00  0.00    -0.353 OA
ATOM     16  C   LIG d   1       8.224  20.224  37.565  0.00  0.00     0.210 C 
ENDBRANCH  11  15
BRANCH  12  17
ATOM     17  O   LIG d   1      11.400  20.147  35.870  0.00  0.00    -0.351 OA
ATOM     18  C   LIG d   1      11.283  19.530  34.594  0.00  0.00     0.210 C 
ENDBRANCH  12  17
BRANCH  13  19
ATOM     19  O   LIG d   1      13.727  19.522  36.940  0.00  0.00    -0.353 OA
ATOM     20  C   LIG d   1      14.456  20.516  37.657  0.00  0.00     0.210 C 
ENDBRANCH  13  19
ENDBRANCH   1   9
BRANCH   5  21
ATOM     21  C   LIG d   1      10.645  13.395  43.259  0.00  0.00    -0.026 A 
ATOM     22  C   LIG d   1      10.525  12.121  42.666  0.00  0.00     0.049 A 
ATOM     23  C   LIG d   1      10.034  11.018  43.388  0.00  0.00     0.102 A 
ATOM     24  C   LIG d   1       9.607  11.205  44.705  0.00  0.00     0.101 A 
ATOM     25  C   LIG d   1       9.689  12.474  45.293  0.00  0.00     0.040 A 
ATOM     26  C   LIG d   1      10.197  13.555  44.567  0.00  0.00     0.012 A 
BRANCH  23  27
ATOM     27  O   LIG d   1      10.045   9.850  42.662  0.00  0.00    -0.353 OA
ATOM     28  C   LIG d   1       8.838   9.477  42.008  0.00  0.00     0.210 C 
ENDBRANCH  23  27
BRANCH  24  29
ATOM     29  O   LIG d   1       9.207  10.133  45.462  0.00  0.00    -0.353 OA
ATOM     30  C   LIG d   1      10.024   9.862  46.595  0.00  0.00     0.210 C 
ENDBRANCH  24  29
ENDBRANCH   5  21
TORSDOF 7
ENDMDL
MODEL 20
REMARK VINA RESULT:      -4.7     17.522     20.315
REMARK  7 active torsions:
REMARK  status: ('A' for Active; 'I' for Inactive)
REMARK    1  A    between atoms: O_2  and  C_3 
REMARK    2  A    between atoms: C_4  and  O_5 
REMARK    3  A    between atoms: C_8  and  C_9 
REMARK    4  A    between atoms: C_13  and  C_17 
REMARK    5  A    between atoms: C_19  and  O_20 
REMARK    6  A    between atoms: C_22  and  O_25 
REMARK    7  A    between atoms: C_28  and  O_29 
ROOT
ATOM      1  C   LIG d   1      22.209  22.624  55.186  0.00  0.00     0.161 C 
ATOM      2  C   LIG d   1      21.289  21.559  54.582  0.00  0.00     0.052 C 
ATOM      3  C   LIG d   1      20.700  21.949  53.251  0.00  0.00     0.176 C 
ATOM      4  O   LIG d   1      21.754  21.794  52.299  0.00  0.00    -0.380 OA
ATOM      5  C   LIG d   1      22.688  20.802  52.792  0.00  0.00     0.161 C 
ATOM      6  C   LIG d   1      22.235  20.451  54.215  0.00  0.00     0.052 C 
ATOM      7  C   LIG d   1      23.343  20.583  55.228  0.00  0.00     0.176 C 
ATOM      8  O   LIG d   1      23.460  21.980  55.508  0.00  0.00    -0.380 OA
ENDROOT
BRANCH   1   9
ATOM      9  C   LIG d   1      21.597  23.225  56.432  0.00  0.00    -0.024 A 
ATOM     10  C   LIG d   1      21.524  24.612  56.608  0.00  0.00     0.049 A 
ATOM     11  C   LIG d   1      20.976  25.179  57.763  0.00  0.00     0.104 A 
ATOM     12  C   LIG d   1      20.551  24.339  58.811  0.00  0.00     0.135 A 
ATOM     13  C   LIG d   1      20.655  22.937  58.654  0.00  0.00     0.104 A 
ATOM     14  C   LIG d   1      21.146  22.393  57.461  0.00  0.00     0.049 A 
BRANCH  11  15
ATOM     15  O   LIG d   1      20.879  26.536  57.907  0.00  0.00    -0.353 OA
ATOM     16  C   LIG d   1      19.912  27.212  57.110  0.00  0.00     0.210 C 
ENDBRANCH  11  15
BRANCH  12  17
ATOM     17  O   LIG d   1      19.972  24.756  59.987  0.00  0.00    -0.351 OA
ATOM     18  C   LIG d   1      18.594  25.105  59.959  0.00  0.00     0.210 C 
ENDBRANCH  12  17
BRANCH  13  19
ATOM     19  O   LIG d   1      20.242  22.149  59.706  0.00  0.00    -0.353 OA
ATOM     20  C   LIG d   1      19.459  21.010  59.353  0.00  0.00     0.210 C 
ENDBRANCH  13  19
ENDBRANCH   1   9
BRANCH   5  21
ATOM     21  C   LIG d   1      22.741  19.613  51.847  0.00  0.00    -0.026 A 
ATOM     22  C   LIG d   1      22.276  18.337  52.229  0.00  0.00     0.049 A 
ATOM     23  C   LIG d   1      22.300  17.249  51.336  0.00  0.00     0.102 A 
ATOM     24  C   LIG d   1      22.846  17.428  50.063  0.00  0.00     0.101 A 
ATOM     25  C   LIG d   1      23.343  18.683  49.686  0.00  0.00     0.040 A 
ATOM     26  C   LIG d   1      23.294  19.757  50.578  0.00  0.00     0.012 A 
BRANCH  23  27
ATOM     27  O   LIG d   1      21.754  16.104  51.867  0.00  0.00    -0.353 OA
ATOM     28  C   LIG d   1      22.546  15.371  52.793  0.00  0.00     0.210 C 
ENDBRANCH  23  27
BRANCH  24  29
ATOM     29  O   LIG d   1      22.802  16.412  49.142  0.00  0.00    -0.353 OA
ATOM     30  C   LIG d   1      24.051  15.780  48.889  0.00  0.00     0.210 C 
ENDBRANCH  24  29
ENDBRANCH   5  21
TORSDOF 7
ENDMDL
